
*** ChampSim Multicore Out-of-Order Simulator ***

Warmup Instructions: 20000000
Simulation Instructions: 80000000
Number of CPUs: 4
LLC sets: 8192
LLC ways: 16
Off-chip DRAM Size: 4096 MB Channels: 1 Width: 256-bit Data Rate: 1600 MT/s

gzip: /data/lbm_1004B.trace.gz: No such file or directory
CPU 0 runs /data/lbm_1004B.trace.gz
CPU 1 runs /data/libquantum_1735B.trace.gz
CPU 2 runs /data/sphinx3_2520B.trace.gz
CPU 3 runs /data/zeusmp_600B.trace.gz
*** Reached end of trace for Core: 0 Repeating trace: /data/lbm_1004B.trace.gz
gzip: /data/libquantum_1735B.trace.gz: No such file or directory
gzip: /data/zeusmp_600B.trace.gz: No such file or directory
gzip: /data/lbm_1004B.trace.gz: No such file or directory
*** Reached end of trace for Core: 0 Repeating trace: /data/lbm_1004B.trace.gz
gzip: /data/sphinx3_2520B.trace.gz: No such file or directory
gzip: /data/lbm_1004B.trace.gz: No such file or directory
*** Reached end of trace for Core: 0 Repeating trace: /data/lbm_1004B.trace.gz
gzip: /data/lbm_1004B.trace.gz: No such file or directory
*** Reached end of trace for Core: 0 Repeating trace: /data/lbm_1004B.trace.gz
gzip: /data/lbm_1004B.trace.gz: No such file or directory
*** Reached end of trace for Core: 0 Repeating trace: /data/lbm_1004B.trace.gz
gzip: /data/lbm_1004B.trace.gz: No such file or directory
*** Reached end of trace for Core: 0 Repeating trace: /data/lbm_1004B.trace.gz
gzip: /data/lbm_1004B.trace.gz: No such file or directory
*** Reached end of trace for Core: 0 Repeating trace: /data/lbm_1004B.trace.gz
gzip: /data/lbm_1004B.trace.gz: No such file or directory
*** Reached end of trace for Core: 0 Repeating trace: /data/lbm_1004B.trace.gz
gzip: /data/lbm_1004B.trace.gz: No such file or directory
*** Reached end of trace for Core: 0 Repeating trace: /data/lbm_1004B.trace.gz
gzip: /data/lbm_1004B.trace.gz: No such file or directory
*** Reached end of trace for Core: 0 Repeating trace: /data/lbm_1004B.trace.gz
gzip: /data/lbm_1004B.trace.gz: No such file or directory
*** Reached end of trace for Core: 0 Repeating trace: /data/lbm_1004B.trace.gz
gzip: /data/lbm_1004B.trace.gz: No such file or directory
*** Reached end of trace for Core: 0 Repeating trace: /data/lbm_1004B.trace.gz
gzip: /data/lbm_1004B.trace.gz: No such file or directory
*** Reached end of trace for Core: 0 Repeating trace: /data/lbm_1004B.trace.gz
gzip: /data/lbm_1004B.trace.gz: No such file or directory
*** Reached end of trace for Core: 0 Repeating trace: /data/lbm_1004B.trace.gz
gzip: /data/lbm_1004B.trace.gz: No such file or directory
*** Reached end of trace for Core: 0 Repeating trace: /data/lbm_1004B.trace.gz
gzip: /data/lbm_1004B.trace.gz: No such file or directory
*** Reached end of trace for Core: 0 Repeating trace: /data/lbm_1004B.trace.gz
gzip: /data/lbm_1004B.trace.gz: No such file or directory
*** Reached end of trace for Core: 0 Repeating trace: /data/lbm_1004B.trace.gz
gzip: /data/lbm_1004B.trace.gz: No such file or directory
*** Reached end of trace for Core: 0 Repeating trace: /data/lbm_1004B.trace.gz
gzip: /data/lbm_1004B.trace.gz: No such file or directory
*** Reached end of trace for Core: 0 Repeating trace: /data/lbm_1004B.trace.gz
gzip: /data/lbm_1004B.trace.gz: No such file or directory
*** Reached end of trace for Core: 0 Repeating trace: /data/lbm_1004B.trace.gz
gzip: /data/lbm_1004B.trace.gz: No such file or directory
*** Reached end of trace for Core: 0 Repeating trace: /data/lbm_1004B.trace.gz
gzip: /data/lbm_1004B.trace.gz: No such file or directory
*** Reached end of trace for Core: 0 Repeating trace: /data/lbm_1004B.trace.gz
gzip: /data/lbm_1004B.trace.gz: No such file or directory
*** Reached end of trace for Core: 0 Repeating trace: /data/lbm_1004B.trace.gz
gzip: /data/lbm_1004B.trace.gz: No such file or directory
*** Reached end of trace for Core: 0 Repeating trace: /data/lbm_1004B.trace.gz
gzip: /data/lbm_1004B.trace.gz: No such file or directory
*** Reached end of trace for Core: 0 Repeating trace: /data/lbm_1004B.trace.gz
gzip: /data/lbm_1004B.trace.gz: No such file or directory
*** Reached end of trace for Core: 0 Repeating trace: /data/lbm_1004B.trace.gz
gzip: /data/lbm_1004B.trace.gz: No such file or directory
*** Reached end of trace for Core: 0 Repeating trace: /data/lbm_1004B.trace.gz
gzip: /data/lbm_1004B.trace.gz: No such file or directory
*** Reached end of trace for Core: 0 Repeating trace: /data/lbm_1004B.trace.gz
gzip: /data/lbm_1004B.trace.gz: No such file or directory
*** Reached end of trace for Core: 0 Repeating trace: /data/lbm_1004B.trace.gz
gzip: /data/lbm_1004B.trace.gz: No such file or directory
*** Reached end of trace for Core: 0 Repeating trace: /data/lbm_1004B.trace.gz
gzip: /data/lbm_1004B.trace.gz: No such file or directory
*** Reached end of trace for Core: 0 Repeating trace: /data/lbm_1004B.trace.gz
gzip: /data/lbm_1004B.trace.gz: No such file or directory
*** Reached end of trace for Core: 0 Repeating trace: /data/lbm_1004B.trace.gz
gzip: /data/lbm_1004B.trace.gz: No such file or directory
*** Reached end of trace for Core: 0 Repeating trace: /data/lbm_1004B.trace.gz
gzip: /data/lbm_1004B.trace.gz: No such file or directory
*** Reached end of trace for Core: 0 Repeating trace: /data/lbm_1004B.trace.gz
gzip: /data/lbm_1004B.trace.gz: No such file or directory
*** Reached end of trace for Core: 0 Repeating trace: /data/lbm_1004B.trace.gz
gzip: /data/lbm_1004B.trace.gz: No such file or directory
*** Reached end of trace for Core: 0 Repeating trace: /data/lbm_1004B.trace.gz
gzip: /data/lbm_1004B.trace.gz: No such file or directory
*** Reached end of trace for Core: 0 Repeating trace: /data/lbm_1004B.trace.gz
gzip: /data/lbm_1004B.trace.gz: No such file or directory
*** Reached end of trace for Core: 0 Repeating trace: /data/lbm_1004B.trace.gz
gzip: /data/lbm_1004B.trace.gz: No such file or directory
*** Reached end of trace for Core: 0 Repeating trace: /data/lbm_1004B.trace.gz
gzip: /data/lbm_1004B.trace.gz: No such file or directory
*** Reached end of trace for Core: 0 Repeating trace: /data/lbm_1004B.trace.gz
gzip: /data/lbm_1004B.trace.gz: No such file or directory
*** Reached end of trace for Core: 0 Repeating trace: /data/lbm_1004B.trace.gz
gzip: /data/lbm_1004B.trace.gz: No such file or directory
*** Reached end of trace for Core: 0 Repeating trace: /data/lbm_1004B.trace.gz
gzip: /data/lbm_1004B.trace.gz: No such file or directory
*** Reached end of trace for Core: 0 Repeating trace: /data/lbm_1004B.trace.gz
gzip: /data/lbm_1004B.trace.gz: No such file or directory
*** Reached end of trace for Core: 0 Repeating trace: /data/lbm_1004B.trace.gz
gzip: /data/lbm_1004B.trace.gz: No such file or directory
*** Reached end of trace for Core: 0 Repeating trace: /data/lbm_1004B.trace.gz
gzip: /data/lbm_1004B.trace.gz: No such file or directory
*** Reached end of trace for Core: 0 Repeating trace: /data/lbm_1004B.trace.gz
gzip: /data/lbm_1004B.trace.gz: No such file or directory
*** Reached end of trace for Core: 0 Repeating trace: /data/lbm_1004B.trace.gz
gzip: /data/lbm_1004B.trace.gz: No such file or directory
*** Reached end of trace for Core: 0 Repeating trace: /data/lbm_1004B.trace.gz
gzip: /data/lbm_1004B.trace.gz: No such file or directory
*** Reached end of trace for Core: 0 Repeating trace: /data/lbm_1004B.trace.gz
gzip: /data/lbm_1004B.trace.gz: No such file or directory
*** Reached end of trace for Core: 0 Repeating trace: /data/lbm_1004B.trace.gz
gzip: /data/lbm_1004B.trace.gz: No such file or directory
*** Reached end of trace for Core: 0 Repeating trace: /data/lbm_1004B.trace.gz
gzip: /data/lbm_1004B.trace.gz: No such file or directory
*** Reached end of trace for Core: 0 Repeating trace: /data/lbm_1004B.trace.gz
gzip: /data/lbm_1004B.trace.gz: No such file or directory
*** Reached end of trace for Core: 0 Repeating trace: /data/lbm_1004B.trace.gz
gzip: /data/lbm_1004B.trace.gz: No such file or directory
*** Reached end of trace for Core: 0 Repeating trace: /data/lbm_1004B.trace.gz
gzip: /data/lbm_1004B.trace.gz: No such file or directory
*** Reached end of trace for Core: 0 Repeating trace: /data/lbm_1004B.trace.gz
gzip: /data/lbm_1004B.trace.gz: No such file or directory
*** Reached end of trace for Core: 0 Repeating trace: /data/lbm_1004B.trace.gz
gzip: /data/lbm_1004B.trace.gz: No such file or directory
*** Reached end of trace for Core: 0 Repeating trace: /data/lbm_1004B.trace.gz
gzip: /data/lbm_1004B.trace.gz: No such file or directory
*** Reached end of trace for Core: 0 Repeating trace: /data/lbm_1004B.trace.gz
gzip: /data/lbm_1004B.trace.gz: No such file or directory
*** Reached end of trace for Core: 0 Repeating trace: /data/lbm_1004B.trace.gz
gzip: /data/lbm_1004B.trace.gz: No such file or directory
*** Reached end of trace for Core: 0 Repeating trace: /data/lbm_1004B.trace.gz
gzip: /data/lbm_1004B.trace.gz: No such file or directory
*** Reached end of trace for Core: 0 Repeating trace: /data/lbm_1004B.trace.gz
gzip: /data/lbm_1004B.trace.gz: No such file or directory
*** Reached end of trace for Core: 0 Repeating trace: /data/lbm_1004B.trace.gz
gzip: /data/lbm_1004B.trace.gz: No such file or directory
*** Reached end of trace for Core: 0 Repeating trace: /data/lbm_1004B.trace.gz
gzip: /data/lbm_1004B.trace.gz: No such file or directory
*** Reached end of trace for Core: 0 Repeating trace: /data/lbm_1004B.trace.gz
gzip: /data/lbm_1004B.trace.gz: No such file or directory
*** Reached end of trace for Core: 0 Repeating trace: /data/lbm_1004B.trace.gz
gzip: /data/lbm_1004B.trace.gz: No such file or directory
*** Reached end of trace for Core: 0 Repeating trace: /data/lbm_1004B.trace.gz
gzip: /data/lbm_1004B.trace.gz: No such file or directory
*** Reached end of trace for Core: 0 Repeating trace: /data/lbm_1004B.trace.gz
gzip: /data/lbm_1004B.trace.gz: No such file or directory
*** Reached end of trace for Core: 0 Repeating trace: /data/lbm_1004B.trace.gz
gzip: /data/lbm_1004B.trace.gz: No such file or directory
*** Reached end of trace for Core: 0 Repeating trace: /data/lbm_1004B.trace.gz
gzip: /data/lbm_1004B.trace.gz: No such file or directory
*** Reached end of trace for Core: 0 Repeating trace: /data/lbm_1004B.trace.gz
gzip: /data/lbm_1004B.trace.gz: No such file or directory
*** Reached end of trace for Core: 0 Repeating trace: /data/lbm_1004B.trace.gz
gzip: /data/lbm_1004B.trace.gz: No such file or directory
*** Reached end of trace for Core: 0 Repeating trace: /data/lbm_1004B.trace.gz
gzip: /data/lbm_1004B.trace.gz: No such file or directory
*** Reached end of trace for Core: 0 Repeating trace: /data/lbm_1004B.trace.gz
gzip: /data/lbm_1004B.trace.gz: No such file or directory
*** Reached end of trace for Core: 0 Repeating trace: /data/lbm_1004B.trace.gz
gzip: /data/lbm_1004B.trace.gz: No such file or directory
*** Reached end of trace for Core: 0 Repeating trace: /data/lbm_1004B.trace.gz
gzip: /data/lbm_1004B.trace.gz: No such file or directory
*** Reached end of trace for Core: 0 Repeating trace: /data/lbm_1004B.trace.gz
gzip: /data/lbm_1004B.trace.gz: No such file or directory
*** Reached end of trace for Core: 0 Repeating trace: /data/lbm_1004B.trace.gz
gzip: /data/lbm_1004B.trace.gz: No such file or directory
*** Reached end of trace for Core: 0 Repeating trace: /data/lbm_1004B.trace.gz
gzip: /data/lbm_1004B.trace.gz: No such file or directory
*** Reached end of trace for Core: 0 Repeating trace: /data/lbm_1004B.trace.gz
gzip: /data/lbm_1004B.trace.gz: No such file or directory
*** Reached end of trace for Core: 0 Repeating trace: /data/lbm_1004B.trace.gz
gzip: /data/lbm_1004B.trace.gz: No such file or directory
*** Reached end of trace for Core: 0 Repeating trace: /data/lbm_1004B.trace.gz
gzip: /data/lbm_1004B.trace.gz: No such file or directory
*** Reached end of trace for Core: 0 Repeating trace: /data/lbm_1004B.trace.gz
gzip: /data/lbm_1004B.trace.gz: No such file or directory
*** Reached end of trace for Core: 0 Repeating trace: /data/lbm_1004B.trace.gz
gzip: /data/lbm_1004B.trace.gz: No such file or directory
*** Reached end of trace for Core: 0 Repeating trace: /data/lbm_1004B.trace.gz
gzip: /data/lbm_1004B.trace.gz: No such file or directory
*** Reached end of trace for Core: 0 Repeating trace: /data/lbm_1004B.trace.gz
gzip: /data/lbm_1004B.trace.gz: No such file or directory
*** Reached end of trace for Core: 0 Repeating trace: /data/lbm_1004B.trace.gz
gzip: /data/lbm_1004B.trace.gz: No such file or directory
*** Reached end of trace for Core: 0 Repeating trace: /data/lbm_1004B.trace.gz
gzip: /data/lbm_1004B.trace.gz: No such file or directory
*** Reached end of trace for Core: 0 Repeating trace: /data/lbm_1004B.trace.gz
gzip: /data/lbm_1004B.trace.gz: No such file or directory
*** Reached end of trace for Core: 0 Repeating trace: /data/lbm_1004B.trace.gz
gzip: /data/lbm_1004B.trace.gz: No such file or directory
*** Reached end of trace for Core: 0 Repeating trace: /data/lbm_1004B.trace.gz
gzip: /data/lbm_1004B.trace.gz: No such file or directory
*** Reached end of trace for Core: 0 Repeating trace: /data/lbm_1004B.trace.gz
gzip: /data/lbm_1004B.trace.gz: No such file or directory
*** Reached end of trace for Core: 0 Repeating trace: /data/lbm_1004B.trace.gz
gzip: /data/lbm_1004B.trace.gz: No such file or directory
*** Reached end of trace for Core: 0 Repeating trace: /data/lbm_1004B.trace.gz
gzip: /data/lbm_1004B.trace.gz: No such file or directory
*** Reached end of trace for Core: 0 Repeating trace: /data/lbm_1004B.trace.gz
gzip: /data/lbm_1004B.trace.gz: No such file or directory
*** Reached end of trace for Core: 0 Repeating trace: /data/lbm_1004B.trace.gz
gzip: /data/lbm_1004B.trace.gz: No such file or directory
*** Reached end of trace for Core: 0 Repeating trace: /data/lbm_1004B.trace.gz
gzip: /data/lbm_1004B.trace.gz: No such file or directory
*** Reached end of trace for Core: 0 Repeating trace: /data/lbm_1004B.trace.gz
gzip: /data/lbm_1004B.trace.gz: No such file or directory
*** Reached end of trace for Core: 0 Repeating trace: /data/lbm_1004B.trace.gz
gzip: /data/lbm_1004B.trace.gz: No such file or directory
*** Reached end of trace for Core: 0 Repeating trace: /data/lbm_1004B.trace.gz
gzip: /data/lbm_1004B.trace.gz: No such file or directory
*** Reached end of trace for Core: 0 Repeating trace: /data/lbm_1004B.trace.gz
gzip: /data/lbm_1004B.trace.gz: No such file or directory
*** Reached end of trace for Core: 0 Repeating trace: /data/lbm_1004B.trace.gz
gzip: /data/lbm_1004B.trace.gz: No such file or directory
*** Reached end of trace for Core: 0 Repeating trace: /data/lbm_1004B.trace.gz
gzip: /data/lbm_1004B.trace.gz: No such file or directory
*** Reached end of trace for Core: 0 Repeating trace: /data/lbm_1004B.trace.gz
gzip: /data/lbm_1004B.trace.gz: No such file or directory
*** Reached end of trace for Core: 0 Repeating trace: /data/lbm_1004B.trace.gz
gzip: /data/lbm_1004B.trace.gz: No such file or directory
*** Reached end of trace for Core: 0 Repeating trace: /data/lbm_1004B.trace.gz
gzip: /data/lbm_1004B.trace.gz: No such file or directory
*** Reached end of trace for Core: 0 Repeating trace: /data/lbm_1004B.trace.gz
gzip: /data/lbm_1004B.trace.gz: No such file or directory
*** Reached end of trace for Core: 0 Repeating trace: /data/lbm_1004B.trace.gz
gzip: /data/lbm_1004B.trace.gz: No such file or directory
*** Reached end of trace for Core: 0 Repeating trace: /data/lbm_1004B.trace.gz
gzip: /data/lbm_1004B.trace.gz: No such file or directory
*** Reached end of trace for Core: 0 Repeating trace: /data/lbm_1004B.trace.gz
gzip: /data/lbm_1004B.trace.gz: No such file or directory
*** Reached end of trace for Core: 0 Repeating trace: /data/lbm_1004B.trace.gz
gzip: /data/lbm_1004B.trace.gz: No such file or directory
*** Reached end of trace for Core: 0 Repeating trace: /data/lbm_1004B.trace.gz
gzip: /data/lbm_1004B.trace.gz: No such file or directory
*** Reached end of trace for Core: 0 Repeating trace: /data/lbm_1004B.trace.gz
gzip: /data/lbm_1004B.trace.gz: No such file or directory
*** Reached end of trace for Core: 0 Repeating trace: /data/lbm_1004B.trace.gz
gzip: /data/lbm_1004B.trace.gz: No such file or directory
*** Reached end of trace for Core: 0 Repeating trace: /data/lbm_1004B.trace.gz
gzip: /data/lbm_1004B.trace.gz: No such file or directory
*** Reached end of trace for Core: 0 Repeating trace: /data/lbm_1004B.trace.gz
gzip: /data/lbm_1004B.trace.gz: No such file or directory
*** Reached end of trace for Core: 0 Repeating trace: /data/lbm_1004B.trace.gz
gzip: /data/lbm_1004B.trace.gz: No such file or directory
*** Reached end of trace for Core: 0 Repeating trace: /data/lbm_1004B.trace.gz
gzip: /data/lbm_1004B.trace.gz: No such file or directory
*** Reached end of trace for Core: 0 Repeating trace: /data/lbm_1004B.trace.gz
gzip: /data/lbm_1004B.trace.gz: No such file or directory
*** Reached end of trace for Core: 0 Repeating trace: /data/lbm_1004B.trace.gz
gzip: /data/lbm_1004B.trace.gz: No such file or directory
*** Reached end of trace for Core: 0 Repeating trace: /data/lbm_1004B.trace.gz
gzip: /data/lbm_1004B.trace.gz: No such file or directory
*** Reached end of trace for Core: 0 Repeating trace: /data/lbm_1004B.trace.gz
gzip: /data/lbm_1004B.trace.gz: No such file or directory
*** Reached end of trace for Core: 0 Repeating trace: /data/lbm_1004B.trace.gz
gzip: /data/lbm_1004B.trace.gz: No such file or directory
*** Reached end of trace for Core: 0 Repeating trace: /data/lbm_1004B.trace.gz
gzip: /data/lbm_1004B.trace.gz: No such file or directory
*** Reached end of trace for Core: 0 Repeating trace: /data/lbm_1004B.trace.gz
gzip: /data/lbm_1004B.trace.gz: No such file or directory
*** Reached end of trace for Core: 0 Repeating trace: /data/lbm_1004B.trace.gz
gzip: /data/lbm_1004B.trace.gz: No such file or directory
*** Reached end of trace for Core: 0 Repeating trace: /data/lbm_1004B.trace.gz
gzip: /data/lbm_1004B.trace.gz: No such file or directory
*** Reached end of trace for Core: 0 Repeating trace: /data/lbm_1004B.trace.gz
gzip: /data/lbm_1004B.trace.gz: No such file or directory
*** Reached end of trace for Core: 0 Repeating trace: /data/lbm_1004B.trace.gz
gzip: /data/lbm_1004B.trace.gz: No such file or directory
*** Reached end of trace for Core: 0 Repeating trace: /data/lbm_1004B.trace.gz
gzip: /data/lbm_1004B.trace.gz: No such file or directory
*** Reached end of trace for Core: 0 Repeating trace: /data/lbm_1004B.trace.gz
gzip: /data/lbm_1004B.trace.gz: No such file or directory
*** Reached end of trace for Core: 0 Repeating trace: /data/lbm_1004B.trace.gz
gzip: /data/lbm_1004B.trace.gz: No such file or directory
*** Reached end of trace for Core: 0 Repeating trace: /data/lbm_1004B.trace.gz
gzip: /data/lbm_1004B.trace.gz: No such file or directory
*** Reached end of trace for Core: 0 Repeating trace: /data/lbm_1004B.trace.gz
gzip: /data/lbm_1004B.trace.gz: No such file or directory
*** Reached end of trace for Core: 0 Repeating trace: /data/lbm_1004B.trace.gz
gzip: /data/lbm_1004B.trace.gz: No such file or directory
*** Reached end of trace for Core: 0 Repeating trace: /data/lbm_1004B.trace.gz
gzip: /data/lbm_1004B.trace.gz: No such file or directory
*** Reached end of trace for Core: 0 Repeating trace: /data/lbm_1004B.trace.gz
gzip: /data/lbm_1004B.trace.gz: No such file or directory
*** Reached end of trace for Core: 0 Repeating trace: /data/lbm_1004B.trace.gz
gzip: /data/lbm_1004B.trace.gz: No such file or directory
*** Reached end of trace for Core: 0 Repeating trace: /data/lbm_1004B.trace.gz
gzip: /data/lbm_1004B.trace.gz: No such file or directory
*** Reached end of trace for Core: 0 Repeating trace: /data/lbm_1004B.trace.gz
gzip: /data/lbm_1004B.trace.gz: No such file or directory
*** Reached end of trace for Core: 0 Repeating trace: /data/lbm_1004B.trace.gz
gzip: /data/lbm_1004B.trace.gz: No such file or directory
*** Reached end of trace for Core: 0 Repeating trace: /data/lbm_1004B.trace.gz
gzip: /data/lbm_1004B.trace.gz: No such file or directory
*** Reached end of trace for Core: 0 Repeating trace: /data/lbm_1004B.trace.gz
gzip: /data/lbm_1004B.trace.gz: No such file or directory
*** Reached end of trace for Core: 0 Repeating trace: /data/lbm_1004B.trace.gz
gzip: /data/lbm_1004B.trace.gz: No such file or directory
*** Reached end of trace for Core: 0 Repeating trace: /data/lbm_1004B.trace.gz
gzip: /data/lbm_1004B.trace.gz: No such file or directory
*** Reached end of trace for Core: 0 Repeating trace: /data/lbm_1004B.trace.gz
gzip: /data/lbm_1004B.trace.gz: No such file or directory
*** Reached end of trace for Core: 0 Repeating trace: /data/lbm_1004B.trace.gz
gzip: /data/lbm_1004B.trace.gz: No such file or directory
*** Reached end of trace for Core: 0 Repeating trace: /data/lbm_1004B.trace.gz
gzip: /data/lbm_1004B.trace.gz: No such file or directory
*** Reached end of trace for Core: 0 Repeating trace: /data/lbm_1004B.trace.gz
gzip: /data/lbm_1004B.trace.gz: No such file or directory
*** Reached end of trace for Core: 0 Repeating trace: /data/lbm_1004B.trace.gz
gzip: /data/lbm_1004B.trace.gz: No such file or directory
*** Reached end of trace for Core: 0 Repeating trace: /data/lbm_1004B.trace.gz
gzip: /data/lbm_1004B.trace.gz: No such file or directory
*** Reached end of trace for Core: 0 Repeating trace: /data/lbm_1004B.trace.gz
gzip: /data/lbm_1004B.trace.gz: No such file or directory
*** Reached end of trace for Core: 0 Repeating trace: /data/lbm_1004B.trace.gz
gzip: /data/lbm_1004B.trace.gz: No such file or directory
*** Reached end of trace for Core: 0 Repeating trace: /data/lbm_1004B.trace.gz
gzip: /data/lbm_1004B.trace.gz: No such file or directory
*** Reached end of trace for Core: 0 Repeating trace: /data/lbm_1004B.trace.gz
gzip: /data/lbm_1004B.trace.gz: No such file or directory
*** Reached end of trace for Core: 0 Repeating trace: /data/lbm_1004B.trace.gz
gzip: /data/lbm_1004B.trace.gz: No such file or directory
*** Reached end of trace for Core: 0 Repeating trace: /data/lbm_1004B.trace.gz
gzip: /data/lbm_1004B.trace.gz: No such file or directory
*** Reached end of trace for Core: 0 Repeating trace: /data/lbm_1004B.trace.gz
gzip: /data/lbm_1004B.trace.gz: No such file or directory
*** Reached end of trace for Core: 0 Repeating trace: /data/lbm_1004B.trace.gz
gzip: /data/lbm_1004B.trace.gz: No such file or directory
*** Reached end of trace for Core: 0 Repeating trace: /data/lbm_1004B.trace.gz
gzip: /data/lbm_1004B.trace.gz: No such file or directory
*** Reached end of trace for Core: 0 Repeating trace: /data/lbm_1004B.trace.gz
gzip: /data/lbm_1004B.trace.gz: No such file or directory
*** Reached end of trace for Core: 0 Repeating trace: /data/lbm_1004B.trace.gz
gzip: /data/lbm_1004B.trace.gz: No such file or directory
*** Reached end of trace for Core: 0 Repeating trace: /data/lbm_1004B.trace.gz
gzip: /data/lbm_1004B.trace.gz: No such file or directory
*** Reached end of trace for Core: 0 Repeating trace: /data/lbm_1004B.trace.gz
gzip: /data/lbm_1004B.trace.gz: No such file or directory
*** Reached end of trace for Core: 0 Repeating trace: /data/lbm_1004B.trace.gz
gzip: /data/lbm_1004B.trace.gz: No such file or directory
*** Reached end of trace for Core: 0 Repeating trace: /data/lbm_1004B.trace.gz
gzip: /data/lbm_1004B.trace.gz: No such file or directory
*** Reached end of trace for Core: 0 Repeating trace: /data/lbm_1004B.trace.gz
gzip: /data/lbm_1004B.trace.gz: No such file or directory
*** Reached end of trace for Core: 0 Repeating trace: /data/lbm_1004B.trace.gz
gzip: /data/lbm_1004B.trace.gz: No such file or directory
*** Reached end of trace for Core: 0 Repeating trace: /data/lbm_1004B.trace.gz
gzip: /data/lbm_1004B.trace.gz: No such file or directory
*** Reached end of trace for Core: 0 Repeating trace: /data/lbm_1004B.trace.gz
gzip: /data/lbm_1004B.trace.gz: No such file or directory
*** Reached end of trace for Core: 0 Repeating trace: /data/lbm_1004B.trace.gz
gzip: /data/lbm_1004B.trace.gz: No such file or directory
*** Reached end of trace for Core: 0 Repeating trace: /data/lbm_1004B.trace.gz
gzip: /data/lbm_1004B.trace.gz: No such file or directory
*** Reached end of trace for Core: 0 Repeating trace: /data/lbm_1004B.trace.gz
gzip: /data/lbm_1004B.trace.gz: No such file or directory
*** Reached end of trace for Core: 0 Repeating trace: /data/lbm_1004B.trace.gz
gzip: /data/lbm_1004B.trace.gz: No such file or directory
*** Reached end of trace for Core: 0 Repeating trace: /data/lbm_1004B.trace.gz
gzip: /data/lbm_1004B.trace.gz: No such file or directory
*** Reached end of trace for Core: 0 Repeating trace: /data/lbm_1004B.trace.gz
gzip: /data/lbm_1004B.trace.gz: No such file or directory
*** Reached end of trace for Core: 0 Repeating trace: /data/lbm_1004B.trace.gz
gzip: /data/lbm_1004B.trace.gz: No such file or directory
*** Reached end of trace for Core: 0 Repeating trace: /data/lbm_1004B.trace.gz
gzip: /data/lbm_1004B.trace.gz: No such file or directory
*** Reached end of trace for Core: 0 Repeating trace: /data/lbm_1004B.trace.gz
gzip: /data/lbm_1004B.trace.gz: No such file or directory
*** Reached end of trace for Core: 0 Repeating trace: /data/lbm_1004B.trace.gz
gzip: /data/lbm_1004B.trace.gz: No such file or directory
*** Reached end of trace for Core: 0 Repeating trace: /data/lbm_1004B.trace.gz
gzip: /data/lbm_1004B.trace.gz: No such file or directory
*** Reached end of trace for Core: 0 Repeating trace: /data/lbm_1004B.trace.gz
gzip: /data/lbm_1004B.trace.gz: No such file or directory
*** Reached end of trace for Core: 0 Repeating trace: /data/lbm_1004B.trace.gz
gzip: /data/lbm_1004B.trace.gz: No such file or directory
*** Reached end of trace for Core: 0 Repeating trace: /data/lbm_1004B.trace.gz
gzip: /data/lbm_1004B.trace.gz: No such file or directory
*** Reached end of trace for Core: 0 Repeating trace: /data/lbm_1004B.trace.gz
gzip: /data/lbm_1004B.trace.gz: No such file or directory
*** Reached end of trace for Core: 0 Repeating trace: /data/lbm_1004B.trace.gz
gzip: /data/lbm_1004B.trace.gz: No such file or directory
*** Reached end of trace for Core: 0 Repeating trace: /data/lbm_1004B.trace.gz
gzip: /data/lbm_1004B.trace.gz: No such file or directory
*** Reached end of trace for Core: 0 Repeating trace: /data/lbm_1004B.trace.gz
gzip: /data/lbm_1004B.trace.gz: No such file or directory
*** Reached end of trace for Core: 0 Repeating trace: /data/lbm_1004B.trace.gz
gzip: /data/lbm_1004B.trace.gz: No such file or directory
*** Reached end of trace for Core: 0 Repeating trace: /data/lbm_1004B.trace.gz
gzip: /data/lbm_1004B.trace.gz: No such file or directory
*** Reached end of trace for Core: 0 Repeating trace: /data/lbm_1004B.trace.gz
gzip: /data/lbm_1004B.trace.gz: No such file or directory
*** Reached end of trace for Core: 0 Repeating trace: /data/lbm_1004B.trace.gz
gzip: /data/lbm_1004B.trace.gz: No such file or directory
*** Reached end of trace for Core: 0 Repeating trace: /data/lbm_1004B.trace.gz
gzip: /data/lbm_1004B.trace.gz: No such file or directory
*** Reached end of trace for Core: 0 Repeating trace: /data/lbm_1004B.trace.gz
gzip: /data/lbm_1004B.trace.gz: No such file or directory
*** Reached end of trace for Core: 0 Repeating trace: /data/lbm_1004B.trace.gz
gzip: /data/lbm_1004B.trace.gz: No such file or directory
*** Reached end of trace for Core: 0 Repeating trace: /data/lbm_1004B.trace.gz
gzip: /data/lbm_1004B.trace.gz: No such file or directory
*** Reached end of trace for Core: 0 Repeating trace: /data/lbm_1004B.trace.gz
gzip: /data/lbm_1004B.trace.gz: No such file or directory
*** Reached end of trace for Core: 0 Repeating trace: /data/lbm_1004B.trace.gz
gzip: /data/lbm_1004B.trace.gz: No such file or directory
*** Reached end of trace for Core: 0 Repeating trace: /data/lbm_1004B.trace.gz
gzip: /data/lbm_1004B.trace.gz: No such file or directory
*** Reached end of trace for Core: 0 Repeating trace: /data/lbm_1004B.trace.gz
gzip: /data/lbm_1004B.trace.gz: No such file or directory
*** Reached end of trace for Core: 0 Repeating trace: /data/lbm_1004B.trace.gz
gzip: /data/lbm_1004B.trace.gz: No such file or directory
*** Reached end of trace for Core: 0 Repeating trace: /data/lbm_1004B.trace.gz
gzip: /data/lbm_1004B.trace.gz: No such file or directory
*** Reached end of trace for Core: 0 Repeating trace: /data/lbm_1004B.trace.gz
gzip: /data/lbm_1004B.trace.gz: No such file or directory
*** Reached end of trace for Core: 0 Repeating trace: /data/lbm_1004B.trace.gz
gzip: /data/lbm_1004B.trace.gz: No such file or directory
*** Reached end of trace for Core: 0 Repeating trace: /data/lbm_1004B.trace.gz
gzip: /data/lbm_1004B.trace.gz: No such file or directory
*** Reached end of trace for Core: 0 Repeating trace: /data/lbm_1004B.trace.gz
gzip: /data/lbm_1004B.trace.gz: No such file or directory
*** Reached end of trace for Core: 0 Repeating trace: /data/lbm_1004B.trace.gz
gzip: /data/lbm_1004B.trace.gz: No such file or directory
*** Reached end of trace for Core: 0 Repeating trace: /data/lbm_1004B.trace.gz
gzip: /data/lbm_1004B.trace.gz: No such file or directory
*** Reached end of trace for Core: 0 Repeating trace: /data/lbm_1004B.trace.gz
gzip: /data/lbm_1004B.trace.gz: No such file or directory
*** Reached end of trace for Core: 0 Repeating trace: /data/lbm_1004B.trace.gz
gzip: /data/lbm_1004B.trace.gz: No such file or directory
*** Reached end of trace for Core: 0 Repeating trace: /data/lbm_1004B.trace.gz
gzip: /data/lbm_1004B.trace.gz: No such file or directory
*** Reached end of trace for Core: 0 Repeating trace: /data/lbm_1004B.trace.gz
gzip: /data/lbm_1004B.trace.gz: No such file or directory
*** Reached end of trace for Core: 0 Repeating trace: /data/lbm_1004B.trace.gz
gzip: /data/lbm_1004B.trace.gz: No such file or directory
*** Reached end of trace for Core: 0 Repeating trace: /data/lbm_1004B.trace.gz
gzip: /data/lbm_1004B.trace.gz: No such file or directory
*** Reached end of trace for Core: 0 Repeating trace: /data/lbm_1004B.trace.gz
gzip: /data/lbm_1004B.trace.gz: No such file or directory
*** Reached end of trace for Core: 0 Repeating trace: /data/lbm_1004B.trace.gz
gzip: /data/lbm_1004B.trace.gz: No such file or directory
*** Reached end of trace for Core: 0 Repeating trace: /data/lbm_1004B.trace.gz
gzip: /data/lbm_1004B.trace.gz: No such file or directory
*** Reached end of trace for Core: 0 Repeating trace: /data/lbm_1004B.trace.gz
gzip: /data/lbm_1004B.trace.gz: No such file or directory
*** Reached end of trace for Core: 0 Repeating trace: /data/lbm_1004B.trace.gz
gzip: /data/lbm_1004B.trace.gz: No such file or directory
*** Reached end of trace for Core: 0 Repeating trace: /data/lbm_1004B.trace.gz
gzip: /data/lbm_1004B.trace.gz: No such file or directory
*** Reached end of trace for Core: 0 Repeating trace: /data/lbm_1004B.trace.gz
gzip: /data/lbm_1004B.trace.gz: No such file or directory
*** Reached end of trace for Core: 0 Repeating trace: /data/lbm_1004B.trace.gz
gzip: /data/lbm_1004B.trace.gz: No such file or directory
*** Reached end of trace for Core: 0 Repeating trace: /data/lbm_1004B.trace.gz
gzip: /data/lbm_1004B.trace.gz: No such file or directory
*** Reached end of trace for Core: 0 Repeating trace: /data/lbm_1004B.trace.gz
gzip: /data/lbm_1004B.trace.gz: No such file or directory
*** Reached end of trace for Core: 0 Repeating trace: /data/lbm_1004B.trace.gz
gzip: /data/lbm_1004B.trace.gz: No such file or directory
*** Reached end of trace for Core: 0 Repeating trace: /data/lbm_1004B.trace.gz
gzip: /data/lbm_1004B.trace.gz: No such file or directory
*** Reached end of trace for Core: 0 Repeating trace: /data/lbm_1004B.trace.gz
gzip: /data/lbm_1004B.trace.gz: No such file or directory
*** Reached end of trace for Core: 0 Repeating trace: /data/lbm_1004B.trace.gz
gzip: /data/lbm_1004B.trace.gz: No such file or directory
*** Reached end of trace for Core: 0 Repeating trace: /data/lbm_1004B.trace.gz
gzip: /data/lbm_1004B.trace.gz: No such file or directory
*** Reached end of trace for Core: 0 Repeating trace: /data/lbm_1004B.trace.gz
gzip: /data/lbm_1004B.trace.gz: No such file or directory
*** Reached end of trace for Core: 0 Repeating trace: /data/lbm_1004B.trace.gz
gzip: /data/lbm_1004B.trace.gz: No such file or directory
*** Reached end of trace for Core: 0 Repeating trace: /data/lbm_1004B.trace.gz
gzip: /data/lbm_1004B.trace.gz: No such file or directory
*** Reached end of trace for Core: 0 Repeating trace: /data/lbm_1004B.trace.gz
gzip: /data/lbm_1004B.trace.gz: No such file or directory
*** Reached end of trace for Core: 0 Repeating trace: /data/lbm_1004B.trace.gz
gzip: /data/lbm_1004B.trace.gz: No such file or directory
*** Reached end of trace for Core: 0 Repeating trace: /data/lbm_1004B.trace.gz
gzip: /data/lbm_1004B.trace.gz: No such file or directory
*** Reached end of trace for Core: 0 Repeating trace: /data/lbm_1004B.trace.gz
gzip: /data/lbm_1004B.trace.gz: No such file or directory
*** Reached end of trace for Core: 0 Repeating trace: /data/lbm_1004B.trace.gz
gzip: /data/lbm_1004B.trace.gz: No such file or directory
*** Reached end of trace for Core: 0 Repeating trace: /data/lbm_1004B.trace.gz
gzip: /data/lbm_1004B.trace.gz: No such file or directory
*** Reached end of trace for Core: 0 Repeating trace: /data/lbm_1004B.trace.gz
gzip: /data/lbm_1004B.trace.gz: No such file or directory
*** Reached end of trace for Core: 0 Repeating trace: /data/lbm_1004B.trace.gz
gzip: /data/lbm_1004B.trace.gz: No such file or directory
*** Reached end of trace for Core: 0 Repeating trace: /data/lbm_1004B.trace.gz
gzip: /data/lbm_1004B.trace.gz: No such file or directory
*** Reached end of trace for Core: 0 Repeating trace: /data/lbm_1004B.trace.gz
gzip: /data/lbm_1004B.trace.gz: No such file or directory
*** Reached end of trace for Core: 0 Repeating trace: /data/lbm_1004B.trace.gz
gzip: /data/lbm_1004B.trace.gz: No such file or directory
*** Reached end of trace for Core: 0 Repeating trace: /data/lbm_1004B.trace.gz
gzip: /data/lbm_1004B.trace.gz: No such file or directory
*** Reached end of trace for Core: 0 Repeating trace: /data/lbm_1004B.trace.gz
gzip: /data/lbm_1004B.trace.gz: No such file or directory
*** Reached end of trace for Core: 0 Repeating trace: /data/lbm_1004B.trace.gz
gzip: /data/lbm_1004B.trace.gz: No such file or directory
*** Reached end of trace for Core: 0 Repeating trace: /data/lbm_1004B.trace.gz
gzip: /data/lbm_1004B.trace.gz: No such file or directory
*** Reached end of trace for Core: 0 Repeating trace: /data/lbm_1004B.trace.gz
gzip: /data/lbm_1004B.trace.gz: No such file or directory
*** Reached end of trace for Core: 0 Repeating trace: /data/lbm_1004B.trace.gz
gzip: /data/lbm_1004B.trace.gz: No such file or directory
*** Reached end of trace for Core: 0 Repeating trace: /data/lbm_1004B.trace.gz
gzip: /data/lbm_1004B.trace.gz: No such file or directory
*** Reached end of trace for Core: 0 Repeating trace: /data/lbm_1004B.trace.gz
gzip: /data/lbm_1004B.trace.gz: No such file or directory
*** Reached end of trace for Core: 0 Repeating trace: /data/lbm_1004B.trace.gz
gzip: /data/lbm_1004B.trace.gz: No such file or directory
*** Reached end of trace for Core: 0 Repeating trace: /data/lbm_1004B.trace.gz
gzip: /data/lbm_1004B.trace.gz: No such file or directory
*** Reached end of trace for Core: 0 Repeating trace: /data/lbm_1004B.trace.gz
gzip: /data/lbm_1004B.trace.gz: No such file or directory
*** Reached end of trace for Core: 0 Repeating trace: /data/lbm_1004B.trace.gz
gzip: /data/lbm_1004B.trace.gz: No such file or directory
*** Reached end of trace for Core: 0 Repeating trace: /data/lbm_1004B.trace.gz
gzip: /data/lbm_1004B.trace.gz: No such file or directory
*** Reached end of trace for Core: 0 Repeating trace: /data/lbm_1004B.trace.gz
gzip: /data/lbm_1004B.trace.gz: No such file or directory
*** Reached end of trace for Core: 0 Repeating trace: /data/lbm_1004B.trace.gz
gzip: /data/lbm_1004B.trace.gz: No such file or directory
*** Reached end of trace for Core: 0 Repeating trace: /data/lbm_1004B.trace.gz
gzip: /data/lbm_1004B.trace.gz: No such file or directory
*** Reached end of trace for Core: 0 Repeating trace: /data/lbm_1004B.trace.gz
gzip: /data/lbm_1004B.trace.gz: No such file or directory
*** Reached end of trace for Core: 0 Repeating trace: /data/lbm_1004B.trace.gz
gzip: /data/lbm_1004B.trace.gz: No such file or directory
*** Reached end of trace for Core: 0 Repeating trace: /data/lbm_1004B.trace.gz
gzip: /data/lbm_1004B.trace.gz: No such file or directory
*** Reached end of trace for Core: 0 Repeating trace: /data/lbm_1004B.trace.gz
gzip: /data/lbm_1004B.trace.gz: No such file or directory
*** Reached end of trace for Core: 0 Repeating trace: /data/lbm_1004B.trace.gz
gzip: /data/lbm_1004B.trace.gz: No such file or directory
*** Reached end of trace for Core: 0 Repeating trace: /data/lbm_1004B.trace.gz
gzip: /data/lbm_1004B.trace.gz: No such file or directory
*** Reached end of trace for Core: 0 Repeating trace: /data/lbm_1004B.trace.gz
gzip: /data/lbm_1004B.trace.gz: No such file or directory
*** Reached end of trace for Core: 0 Repeating trace: /data/lbm_1004B.trace.gz
gzip: /data/lbm_1004B.trace.gz: No such file or directory
*** Reached end of trace for Core: 0 Repeating trace: /data/lbm_1004B.trace.gz
gzip: /data/lbm_1004B.trace.gz: No such file or directory
*** Reached end of trace for Core: 0 Repeating trace: /data/lbm_1004B.trace.gz
gzip: /data/lbm_1004B.trace.gz: No such file or directory
*** Reached end of trace for Core: 0 Repeating trace: /data/lbm_1004B.trace.gz
gzip: /data/lbm_1004B.trace.gz: No such file or directory
*** Reached end of trace for Core: 0 Repeating trace: /data/lbm_1004B.trace.gz
gzip: /data/lbm_1004B.trace.gz: No such file or directory
*** Reached end of trace for Core: 0 Repeating trace: /data/lbm_1004B.trace.gz
gzip: /data/lbm_1004B.trace.gz: No such file or directory
*** Reached end of trace for Core: 0 Repeating trace: /data/lbm_1004B.trace.gz
gzip: /data/lbm_1004B.trace.gz: No such file or directory
*** Reached end of trace for Core: 0 Repeating trace: /data/lbm_1004B.trace.gz
gzip: /data/lbm_1004B.trace.gz: No such file or directory
*** Reached end of trace for Core: 0 Repeating trace: /data/lbm_1004B.trace.gz
gzip: /data/lbm_1004B.trace.gz: No such file or directory
*** Reached end of trace for Core: 0 Repeating trace: /data/lbm_1004B.trace.gz
gzip: /data/lbm_1004B.trace.gz: No such file or directory
*** Reached end of trace for Core: 0 Repeating trace: /data/lbm_1004B.trace.gz
gzip: /data/lbm_1004B.trace.gz: No such file or directory
*** Reached end of trace for Core: 0 Repeating trace: /data/lbm_1004B.trace.gz
gzip: /data/lbm_1004B.trace.gz: No such file or directory
*** Reached end of trace for Core: 0 Repeating trace: /data/lbm_1004B.trace.gz
gzip: /data/lbm_1004B.trace.gz: No such file or directory
*** Reached end of trace for Core: 0 Repeating trace: /data/lbm_1004B.trace.gz
gzip: /data/lbm_1004B.trace.gz: No such file or directory
*** Reached end of trace for Core: 0 Repeating trace: /data/lbm_1004B.trace.gz
gzip: /data/lbm_1004B.trace.gz: No such file or directory
*** Reached end of trace for Core: 0 Repeating trace: /data/lbm_1004B.trace.gz
gzip: /data/lbm_1004B.trace.gz: No such file or directory
*** Reached end of trace for Core: 0 Repeating trace: /data/lbm_1004B.trace.gz
gzip: /data/lbm_1004B.trace.gz: No such file or directory
*** Reached end of trace for Core: 0 Repeating trace: /data/lbm_1004B.trace.gz
gzip: /data/lbm_1004B.trace.gz: No such file or directory
*** Reached end of trace for Core: 0 Repeating trace: /data/lbm_1004B.trace.gz
gzip: /data/lbm_1004B.trace.gz: No such file or directory
*** Reached end of trace for Core: 0 Repeating trace: /data/lbm_1004B.trace.gz
gzip: /data/lbm_1004B.trace.gz: No such file or directory
*** Reached end of trace for Core: 0 Repeating trace: /data/lbm_1004B.trace.gz
gzip: /data/lbm_1004B.trace.gz: No such file or directory
*** Reached end of trace for Core: 0 Repeating trace: /data/lbm_1004B.trace.gz
gzip: /data/lbm_1004B.trace.gz: No such file or directory
*** Reached end of trace for Core: 0 Repeating trace: /data/lbm_1004B.trace.gz
gzip: /data/lbm_1004B.trace.gz: No such file or directory
*** Reached end of trace for Core: 0 Repeating trace: /data/lbm_1004B.trace.gz
gzip: /data/lbm_1004B.trace.gz: No such file or directory
*** Reached end of trace for Core: 0 Repeating trace: /data/lbm_1004B.trace.gz
gzip: /data/lbm_1004B.trace.gz: No such file or directory
*** Reached end of trace for Core: 0 Repeating trace: /data/lbm_1004B.trace.gz
gzip: /data/lbm_1004B.trace.gz: No such file or directory
*** Reached end of trace for Core: 0 Repeating trace: /data/lbm_1004B.trace.gz
gzip: /data/lbm_1004B.trace.gz: No such file or directory
*** Reached end of trace for Core: 0 Repeating trace: /data/lbm_1004B.trace.gz
gzip: /data/lbm_1004B.trace.gz: No such file or directory
*** Reached end of trace for Core: 0 Repeating trace: /data/lbm_1004B.trace.gz
gzip: /data/lbm_1004B.trace.gz: No such file or directory
*** Reached end of trace for Core: 0 Repeating trace: /data/lbm_1004B.trace.gz
gzip: /data/lbm_1004B.trace.gz: No such file or directory
*** Reached end of trace for Core: 0 Repeating trace: /data/lbm_1004B.trace.gz
gzip: /data/lbm_1004B.trace.gz: No such file or directory
*** Reached end of trace for Core: 0 Repeating trace: /data/lbm_1004B.trace.gz
gzip: /data/lbm_1004B.trace.gz: No such file or directory
*** Reached end of trace for Core: 0 Repeating trace: /data/lbm_1004B.trace.gz
gzip: /data/lbm_1004B.trace.gz: No such file or directory
*** Reached end of trace for Core: 0 Repeating trace: /data/lbm_1004B.trace.gz
gzip: /data/lbm_1004B.trace.gz: No such file or directory
*** Reached end of trace for Core: 0 Repeating trace: /data/lbm_1004B.trace.gz
gzip: /data/lbm_1004B.trace.gz: No such file or directory
*** Reached end of trace for Core: 0 Repeating trace: /data/lbm_1004B.trace.gz
gzip: /data/lbm_1004B.trace.gz: No such file or directory
*** Reached end of trace for Core: 0 Repeating trace: /data/lbm_1004B.trace.gz
gzip: /data/lbm_1004B.trace.gz: No such file or directory
*** Reached end of trace for Core: 0 Repeating trace: /data/lbm_1004B.trace.gz
gzip: /data/lbm_1004B.trace.gz: No such file or directory
*** Reached end of trace for Core: 0 Repeating trace: /data/lbm_1004B.trace.gz
gzip: /data/lbm_1004B.trace.gz: No such file or directory
*** Reached end of trace for Core: 0 Repeating trace: /data/lbm_1004B.trace.gz
gzip: /data/lbm_1004B.trace.gz: No such file or directory
*** Reached end of trace for Core: 0 Repeating trace: /data/lbm_1004B.trace.gz
gzip: /data/lbm_1004B.trace.gz: No such file or directory
*** Reached end of trace for Core: 0 Repeating trace: /data/lbm_1004B.trace.gz
gzip: /data/lbm_1004B.trace.gz: No such file or directory
*** Reached end of trace for Core: 0 Repeating trace: /data/lbm_1004B.trace.gz
gzip: /data/lbm_1004B.trace.gz: No such file or directory
*** Reached end of trace for Core: 0 Repeating trace: /data/lbm_1004B.trace.gz
gzip: /data/lbm_1004B.trace.gz: No such file or directory
*** Reached end of trace for Core: 0 Repeating trace: /data/lbm_1004B.trace.gz
gzip: /data/lbm_1004B.trace.gz: No such file or directory
*** Reached end of trace for Core: 0 Repeating trace: /data/lbm_1004B.trace.gz
gzip: /data/lbm_1004B.trace.gz: No such file or directory
*** Reached end of trace for Core: 0 Repeating trace: /data/lbm_1004B.trace.gz
gzip: /data/lbm_1004B.trace.gz: No such file or directory
*** Reached end of trace for Core: 0 Repeating trace: /data/lbm_1004B.trace.gz
gzip: /data/lbm_1004B.trace.gz: No such file or directory
*** Reached end of trace for Core: 0 Repeating trace: /data/lbm_1004B.trace.gz
gzip: /data/lbm_1004B.trace.gz: No such file or directory
*** Reached end of trace for Core: 0 Repeating trace: /data/lbm_1004B.trace.gz
gzip: /data/lbm_1004B.trace.gz: No such file or directory
*** Reached end of trace for Core: 0 Repeating trace: /data/lbm_1004B.trace.gz
gzip: /data/lbm_1004B.trace.gz: No such file or directory
*** Reached end of trace for Core: 0 Repeating trace: /data/lbm_1004B.trace.gz
gzip: /data/lbm_1004B.trace.gz: No such file or directory
*** Reached end of trace for Core: 0 Repeating trace: /data/lbm_1004B.trace.gz
gzip: /data/lbm_1004B.trace.gz: No such file or directory
*** Reached end of trace for Core: 0 Repeating trace: /data/lbm_1004B.trace.gz
gzip: /data/lbm_1004B.trace.gz: No such file or directory
*** Reached end of trace for Core: 0 Repeating trace: /data/lbm_1004B.trace.gz
gzip: /data/lbm_1004B.trace.gz: No such file or directory
*** Reached end of trace for Core: 0 Repeating trace: /data/lbm_1004B.trace.gz
gzip: /data/lbm_1004B.trace.gz: No such file or directory
*** Reached end of trace for Core: 0 Repeating trace: /data/lbm_1004B.trace.gz
gzip: /data/lbm_1004B.trace.gz: No such file or directory
*** Reached end of trace for Core: 0 Repeating trace: /data/lbm_1004B.trace.gz
gzip: /data/lbm_1004B.trace.gz: No such file or directory
*** Reached end of trace for Core: 0 Repeating trace: /data/lbm_1004B.trace.gz
gzip: /data/lbm_1004B.trace.gz: No such file or directory
*** Reached end of trace for Core: 0 Repeating trace: /data/lbm_1004B.trace.gz
gzip: /data/lbm_1004B.trace.gz: No such file or directory
*** Reached end of trace for Core: 0 Repeating trace: /data/lbm_1004B.trace.gz
gzip: /data/lbm_1004B.trace.gz: No such file or directory
*** Reached end of trace for Core: 0 Repeating trace: /data/lbm_1004B.trace.gz
gzip: /data/lbm_1004B.trace.gz: No such file or directory
*** Reached end of trace for Core: 0 Repeating trace: /data/lbm_1004B.trace.gz
gzip: /data/lbm_1004B.trace.gz: No such file or directory
*** Reached end of trace for Core: 0 Repeating trace: /data/lbm_1004B.trace.gz
gzip: /data/lbm_1004B.trace.gz: No such file or directory
*** Reached end of trace for Core: 0 Repeating trace: /data/lbm_1004B.trace.gz
gzip: /data/lbm_1004B.trace.gz: No such file or directory
*** Reached end of trace for Core: 0 Repeating trace: /data/lbm_1004B.trace.gz
gzip: /data/lbm_1004B.trace.gz: No such file or directory
*** Reached end of trace for Core: 0 Repeating trace: /data/lbm_1004B.trace.gz
gzip: /data/lbm_1004B.trace.gz: No such file or directory
*** Reached end of trace for Core: 0 Repeating trace: /data/lbm_1004B.trace.gz
gzip: /data/lbm_1004B.trace.gz: No such file or directory
*** Reached end of trace for Core: 0 Repeating trace: /data/lbm_1004B.trace.gz
gzip: /data/lbm_1004B.trace.gz: No such file or directory
*** Reached end of trace for Core: 0 Repeating trace: /data/lbm_1004B.trace.gz
gzip: /data/lbm_1004B.trace.gz: No such file or directory
*** Reached end of trace for Core: 0 Repeating trace: /data/lbm_1004B.trace.gz
gzip: /data/lbm_1004B.trace.gz: No such file or directory
*** Reached end of trace for Core: 0 Repeating trace: /data/lbm_1004B.trace.gz
gzip: /data/lbm_1004B.trace.gz: No such file or directory
*** Reached end of trace for Core: 0 Repeating trace: /data/lbm_1004B.trace.gz
gzip: /data/lbm_1004B.trace.gz: No such file or directory
*** Reached end of trace for Core: 0 Repeating trace: /data/lbm_1004B.trace.gz
gzip: /data/lbm_1004B.trace.gz: No such file or directory
*** Reached end of trace for Core: 0 Repeating trace: /data/lbm_1004B.trace.gz
gzip: /data/lbm_1004B.trace.gz: No such file or directory
*** Reached end of trace for Core: 0 Repeating trace: /data/lbm_1004B.trace.gz
gzip: /data/lbm_1004B.trace.gz: No such file or directory
*** Reached end of trace for Core: 0 Repeating trace: /data/lbm_1004B.trace.gz
gzip: /data/lbm_1004B.trace.gz: No such file or directory
*** Reached end of trace for Core: 0 Repeating trace: /data/lbm_1004B.trace.gz
gzip: /data/lbm_1004B.trace.gz: No such file or directory
*** Reached end of trace for Core: 0 Repeating trace: /data/lbm_1004B.trace.gz
gzip: /data/lbm_1004B.trace.gz: No such file or directory
*** Reached end of trace for Core: 0 Repeating trace: /data/lbm_1004B.trace.gz
gzip: /data/lbm_1004B.trace.gz: No such file or directory
*** Reached end of trace for Core: 0 Repeating trace: /data/lbm_1004B.trace.gz
gzip: /data/lbm_1004B.trace.gz: No such file or directory
*** Reached end of trace for Core: 0 Repeating trace: /data/lbm_1004B.trace.gz
gzip: /data/lbm_1004B.trace.gz: No such file or directory
*** Reached end of trace for Core: 0 Repeating trace: /data/lbm_1004B.trace.gz
gzip: /data/lbm_1004B.trace.gz: No such file or directory
*** Reached end of trace for Core: 0 Repeating trace: /data/lbm_1004B.trace.gz
gzip: /data/lbm_1004B.trace.gz: No such file or directory
*** Reached end of trace for Core: 0 Repeating trace: /data/lbm_1004B.trace.gz
gzip: /data/lbm_1004B.trace.gz: No such file or directory
*** Reached end of trace for Core: 0 Repeating trace: /data/lbm_1004B.trace.gz
gzip: /data/lbm_1004B.trace.gz: No such file or directory
*** Reached end of trace for Core: 0 Repeating trace: /data/lbm_1004B.trace.gz
gzip: /data/lbm_1004B.trace.gz: No such file or directory
*** Reached end of trace for Core: 0 Repeating trace: /data/lbm_1004B.trace.gz
gzip: /data/lbm_1004B.trace.gz: No such file or directory
*** Reached end of trace for Core: 0 Repeating trace: /data/lbm_1004B.trace.gz
gzip: /data/lbm_1004B.trace.gz: No such file or directory
*** Reached end of trace for Core: 0 Repeating trace: /data/lbm_1004B.trace.gz
gzip: /data/lbm_1004B.trace.gz: No such file or directory
*** Reached end of trace for Core: 0 Repeating trace: /data/lbm_1004B.trace.gz
gzip: /data/lbm_1004B.trace.gz: No such file or directory
*** Reached end of trace for Core: 0 Repeating trace: /data/lbm_1004B.trace.gz
gzip: /data/lbm_1004B.trace.gz: No such file or directory
*** Reached end of trace for Core: 0 Repeating trace: /data/lbm_1004B.trace.gz
gzip: /data/lbm_1004B.trace.gz: No such file or directory
*** Reached end of trace for Core: 0 Repeating trace: /data/lbm_1004B.trace.gz
gzip: /data/lbm_1004B.trace.gz: No such file or directory
*** Reached end of trace for Core: 0 Repeating trace: /data/lbm_1004B.trace.gz
gzip: /data/lbm_1004B.trace.gz: No such file or directory
*** Reached end of trace for Core: 0 Repeating trace: /data/lbm_1004B.trace.gz
gzip: /data/lbm_1004B.trace.gz: No such file or directory
*** Reached end of trace for Core: 0 Repeating trace: /data/lbm_1004B.trace.gz
gzip: /data/lbm_1004B.trace.gz: No such file or directory
*** Reached end of trace for Core: 0 Repeating trace: /data/lbm_1004B.trace.gz
gzip: /data/lbm_1004B.trace.gz: No such file or directory
*** Reached end of trace for Core: 0 Repeating trace: /data/lbm_1004B.trace.gz
gzip: /data/lbm_1004B.trace.gz: No such file or directory
*** Reached end of trace for Core: 0 Repeating trace: /data/lbm_1004B.trace.gz
gzip: /data/lbm_1004B.trace.gz: No such file or directory
*** Reached end of trace for Core: 0 Repeating trace: /data/lbm_1004B.trace.gz
gzip: /data/lbm_1004B.trace.gz: No such file or directory
*** Reached end of trace for Core: 0 Repeating trace: /data/lbm_1004B.trace.gz
gzip: /data/lbm_1004B.trace.gz: No such file or directory
*** Reached end of trace for Core: 0 Repeating trace: /data/lbm_1004B.trace.gz
gzip: /data/lbm_1004B.trace.gz: No such file or directory
*** Reached end of trace for Core: 0 Repeating trace: /data/lbm_1004B.trace.gz
gzip: /data/lbm_1004B.trace.gz: No such file or directory
*** Reached end of trace for Core: 0 Repeating trace: /data/lbm_1004B.trace.gz
gzip: /data/lbm_1004B.trace.gz: No such file or directory
*** Reached end of trace for Core: 0 Repeating trace: /data/lbm_1004B.trace.gz
gzip: /data/lbm_1004B.trace.gz: No such file or directory
*** Reached end of trace for Core: 0 Repeating trace: /data/lbm_1004B.trace.gz
gzip: /data/lbm_1004B.trace.gz: No such file or directory
*** Reached end of trace for Core: 0 Repeating trace: /data/lbm_1004B.trace.gz
gzip: /data/lbm_1004B.trace.gz: No such file or directory
*** Reached end of trace for Core: 0 Repeating trace: /data/lbm_1004B.trace.gz
gzip: /data/lbm_1004B.trace.gz: No such file or directory
*** Reached end of trace for Core: 0 Repeating trace: /data/lbm_1004B.trace.gz
gzip: /data/lbm_1004B.trace.gz: No such file or directory
*** Reached end of trace for Core: 0 Repeating trace: /data/lbm_1004B.trace.gz
gzip: /data/lbm_1004B.trace.gz: No such file or directory
*** Reached end of trace for Core: 0 Repeating trace: /data/lbm_1004B.trace.gz
gzip: /data/lbm_1004B.trace.gz: No such file or directory
*** Reached end of trace for Core: 0 Repeating trace: /data/lbm_1004B.trace.gz
gzip: /data/lbm_1004B.trace.gz: No such file or directory
*** Reached end of trace for Core: 0 Repeating trace: /data/lbm_1004B.trace.gz
gzip: /data/lbm_1004B.trace.gz: No such file or directory
*** Reached end of trace for Core: 0 Repeating trace: /data/lbm_1004B.trace.gz
gzip: /data/lbm_1004B.trace.gz: No such file or directory
*** Reached end of trace for Core: 0 Repeating trace: /data/lbm_1004B.trace.gz
gzip: /data/lbm_1004B.trace.gz: No such file or directory
*** Reached end of trace for Core: 0 Repeating trace: /data/lbm_1004B.trace.gz
gzip: /data/lbm_1004B.trace.gz: No such file or directory
*** Reached end of trace for Core: 0 Repeating trace: /data/lbm_1004B.trace.gz
gzip: /data/lbm_1004B.trace.gz: No such file or directory
*** Reached end of trace for Core: 0 Repeating trace: /data/lbm_1004B.trace.gz
gzip: /data/lbm_1004B.trace.gz: No such file or directory
*** Reached end of trace for Core: 0 Repeating trace: /data/lbm_1004B.trace.gz
gzip: /data/lbm_1004B.trace.gz: No such file or directory
*** Reached end of trace for Core: 0 Repeating trace: /data/lbm_1004B.trace.gz
gzip: /data/lbm_1004B.trace.gz: No such file or directory
*** Reached end of trace for Core: 0 Repeating trace: /data/lbm_1004B.trace.gz
gzip: /data/lbm_1004B.trace.gz: No such file or directory
*** Reached end of trace for Core: 0 Repeating trace: /data/lbm_1004B.trace.gz
gzip: /data/lbm_1004B.trace.gz: No such file or directory
*** Reached end of trace for Core: 0 Repeating trace: /data/lbm_1004B.trace.gz
gzip: /data/lbm_1004B.trace.gz: No such file or directory
*** Reached end of trace for Core: 0 Repeating trace: /data/lbm_1004B.trace.gz
gzip: /data/lbm_1004B.trace.gz: No such file or directory
*** Reached end of trace for Core: 0 Repeating trace: /data/lbm_1004B.trace.gz
gzip: /data/lbm_1004B.trace.gz: No such file or directory
*** Reached end of trace for Core: 0 Repeating trace: /data/lbm_1004B.trace.gz
gzip: /data/lbm_1004B.trace.gz: No such file or directory
*** Reached end of trace for Core: 0 Repeating trace: /data/lbm_1004B.trace.gz
gzip: /data/lbm_1004B.trace.gz: No such file or directory
*** Reached end of trace for Core: 0 Repeating trace: /data/lbm_1004B.trace.gz
gzip: /data/lbm_1004B.trace.gz: No such file or directory
*** Reached end of trace for Core: 0 Repeating trace: /data/lbm_1004B.trace.gz
gzip: /data/lbm_1004B.trace.gz: No such file or directory
*** Reached end of trace for Core: 0 Repeating trace: /data/lbm_1004B.trace.gz
gzip: /data/lbm_1004B.trace.gz: No such file or directory
*** Reached end of trace for Core: 0 Repeating trace: /data/lbm_1004B.trace.gz
gzip: /data/lbm_1004B.trace.gz: No such file or directory
*** Reached end of trace for Core: 0 Repeating trace: /data/lbm_1004B.trace.gz
gzip: /data/lbm_1004B.trace.gz: No such file or directory
*** Reached end of trace for Core: 0 Repeating trace: /data/lbm_1004B.trace.gz
gzip: /data/lbm_1004B.trace.gz: No such file or directory
*** Reached end of trace for Core: 0 Repeating trace: /data/lbm_1004B.trace.gz
gzip: /data/lbm_1004B.trace.gz: No such file or directory
*** Reached end of trace for Core: 0 Repeating trace: /data/lbm_1004B.trace.gz
gzip: /data/lbm_1004B.trace.gz: No such file or directory
*** Reached end of trace for Core: 0 Repeating trace: /data/lbm_1004B.trace.gz
gzip: /data/lbm_1004B.trace.gz: No such file or directory
*** Reached end of trace for Core: 0 Repeating trace: /data/lbm_1004B.trace.gz
gzip: /data/lbm_1004B.trace.gz: No such file or directory
*** Reached end of trace for Core: 0 Repeating trace: /data/lbm_1004B.trace.gz
gzip: /data/lbm_1004B.trace.gz: No such file or directory
*** Reached end of trace for Core: 0 Repeating trace: /data/lbm_1004B.trace.gz
gzip: /data/lbm_1004B.trace.gz: No such file or directory
*** Reached end of trace for Core: 0 Repeating trace: /data/lbm_1004B.trace.gz
gzip: /data/lbm_1004B.trace.gz: No such file or directory
*** Reached end of trace for Core: 0 Repeating trace: /data/lbm_1004B.trace.gz
gzip: /data/lbm_1004B.trace.gz: No such file or directory
*** Reached end of trace for Core: 0 Repeating trace: /data/lbm_1004B.trace.gz
gzip: /data/lbm_1004B.trace.gz: No such file or directory
*** Reached end of trace for Core: 0 Repeating trace: /data/lbm_1004B.trace.gz
gzip: /data/lbm_1004B.trace.gz: No such file or directory
*** Reached end of trace for Core: 0 Repeating trace: /data/lbm_1004B.trace.gz
gzip: /data/lbm_1004B.trace.gz: No such file or directory
*** Reached end of trace for Core: 0 Repeating trace: /data/lbm_1004B.trace.gz
gzip: /data/lbm_1004B.trace.gz: No such file or directory
*** Reached end of trace for Core: 0 Repeating trace: /data/lbm_1004B.trace.gz
gzip: /data/lbm_1004B.trace.gz: No such file or directory
*** Reached end of trace for Core: 0 Repeating trace: /data/lbm_1004B.trace.gz
gzip: /data/lbm_1004B.trace.gz: No such file or directory
*** Reached end of trace for Core: 0 Repeating trace: /data/lbm_1004B.trace.gz
gzip: /data/lbm_1004B.trace.gz: No such file or directory
*** Reached end of trace for Core: 0 Repeating trace: /data/lbm_1004B.trace.gz
gzip: /data/lbm_1004B.trace.gz: No such file or directory
*** Reached end of trace for Core: 0 Repeating trace: /data/lbm_1004B.trace.gz
gzip: /data/lbm_1004B.trace.gz: No such file or directory
*** Reached end of trace for Core: 0 Repeating trace: /data/lbm_1004B.trace.gz
gzip: /data/lbm_1004B.trace.gz: No such file or directory
*** Reached end of trace for Core: 0 Repeating trace: /data/lbm_1004B.trace.gz
gzip: /data/lbm_1004B.trace.gz: No such file or directory
*** Reached end of trace for Core: 0 Repeating trace: /data/lbm_1004B.trace.gz
gzip: /data/lbm_1004B.trace.gz: No such file or directory
*** Reached end of trace for Core: 0 Repeating trace: /data/lbm_1004B.trace.gz
gzip: /data/lbm_1004B.trace.gz: No such file or directory
*** Reached end of trace for Core: 0 Repeating trace: /data/lbm_1004B.trace.gz
gzip: /data/lbm_1004B.trace.gz: No such file or directory
*** Reached end of trace for Core: 0 Repeating trace: /data/lbm_1004B.trace.gz
gzip: /data/lbm_1004B.trace.gz: No such file or directory
*** Reached end of trace for Core: 0 Repeating trace: /data/lbm_1004B.trace.gz
gzip: /data/lbm_1004B.trace.gz: No such file or directory
*** Reached end of trace for Core: 0 Repeating trace: /data/lbm_1004B.trace.gz
gzip: /data/lbm_1004B.trace.gz: No such file or directory
*** Reached end of trace for Core: 0 Repeating trace: /data/lbm_1004B.trace.gz
gzip: /data/lbm_1004B.trace.gz: No such file or directory
*** Reached end of trace for Core: 0 Repeating trace: /data/lbm_1004B.trace.gz
gzip: /data/lbm_1004B.trace.gz: No such file or directory
*** Reached end of trace for Core: 0 Repeating trace: /data/lbm_1004B.trace.gz
gzip: /data/lbm_1004B.trace.gz: No such file or directory
*** Reached end of trace for Core: 0 Repeating trace: /data/lbm_1004B.trace.gz
gzip: /data/lbm_1004B.trace.gz: No such file or directory
*** Reached end of trace for Core: 0 Repeating trace: /data/lbm_1004B.trace.gz
gzip: /data/lbm_1004B.trace.gz: No such file or directory
*** Reached end of trace for Core: 0 Repeating trace: /data/lbm_1004B.trace.gz
gzip: /data/lbm_1004B.trace.gz: No such file or directory
*** Reached end of trace for Core: 0 Repeating trace: /data/lbm_1004B.trace.gz
gzip: /data/lbm_1004B.trace.gz: No such file or directory
*** Reached end of trace for Core: 0 Repeating trace: /data/lbm_1004B.trace.gz
gzip: /data/lbm_1004B.trace.gz: No such file or directory
*** Reached end of trace for Core: 0 Repeating trace: /data/lbm_1004B.trace.gz
gzip: /data/lbm_1004B.trace.gz: No such file or directory
*** Reached end of trace for Core: 0 Repeating trace: /data/lbm_1004B.trace.gz
gzip: /data/lbm_1004B.trace.gz: No such file or directory
*** Reached end of trace for Core: 0 Repeating trace: /data/lbm_1004B.trace.gz
gzip: /data/lbm_1004B.trace.gz: No such file or directory
*** Reached end of trace for Core: 0 Repeating trace: /data/lbm_1004B.trace.gz
gzip: /data/lbm_1004B.trace.gz: No such file or directory
*** Reached end of trace for Core: 0 Repeating trace: /data/lbm_1004B.trace.gz
gzip: /data/lbm_1004B.trace.gz: No such file or directory
*** Reached end of trace for Core: 0 Repeating trace: /data/lbm_1004B.trace.gz
gzip: /data/lbm_1004B.trace.gz: No such file or directory
*** Reached end of trace for Core: 0 Repeating trace: /data/lbm_1004B.trace.gz
gzip: /data/lbm_1004B.trace.gz: No such file or directory
*** Reached end of trace for Core: 0 Repeating trace: /data/lbm_1004B.trace.gz
gzip: /data/lbm_1004B.trace.gz: No such file or directory
*** Reached end of trace for Core: 0 Repeating trace: /data/lbm_1004B.trace.gz
gzip: /data/lbm_1004B.trace.gz: No such file or directory
*** Reached end of trace for Core: 0 Repeating trace: /data/lbm_1004B.trace.gz
gzip: /data/lbm_1004B.trace.gz: No such file or directory
*** Reached end of trace for Core: 0 Repeating trace: /data/lbm_1004B.trace.gz
gzip: /data/lbm_1004B.trace.gz: No such file or directory
*** Reached end of trace for Core: 0 Repeating trace: /data/lbm_1004B.trace.gz
gzip: /data/lbm_1004B.trace.gz: No such file or directory
*** Reached end of trace for Core: 0 Repeating trace: /data/lbm_1004B.trace.gz
gzip: /data/lbm_1004B.trace.gz: No such file or directory
*** Reached end of trace for Core: 0 Repeating trace: /data/lbm_1004B.trace.gz
gzip: /data/lbm_1004B.trace.gz: No such file or directory
*** Reached end of trace for Core: 0 Repeating trace: /data/lbm_1004B.trace.gz
gzip: /data/lbm_1004B.trace.gz: No such file or directory
*** Reached end of trace for Core: 0 Repeating trace: /data/lbm_1004B.trace.gz
gzip: /data/lbm_1004B.trace.gz: No such file or directory
*** Reached end of trace for Core: 0 Repeating trace: /data/lbm_1004B.trace.gz
gzip: /data/lbm_1004B.trace.gz: No such file or directory
*** Reached end of trace for Core: 0 Repeating trace: /data/lbm_1004B.trace.gz
gzip: /data/lbm_1004B.trace.gz: No such file or directory
*** Reached end of trace for Core: 0 Repeating trace: /data/lbm_1004B.trace.gz
gzip: /data/lbm_1004B.trace.gz: No such file or directory
*** Reached end of trace for Core: 0 Repeating trace: /data/lbm_1004B.trace.gz
gzip: /data/lbm_1004B.trace.gz: No such file or directory
*** Reached end of trace for Core: 0 Repeating trace: /data/lbm_1004B.trace.gz
gzip: /data/lbm_1004B.trace.gz: No such file or directory
*** Reached end of trace for Core: 0 Repeating trace: /data/lbm_1004B.trace.gz
gzip: /data/lbm_1004B.trace.gz: No such file or directory
*** Reached end of trace for Core: 0 Repeating trace: /data/lbm_1004B.trace.gz
gzip: /data/lbm_1004B.trace.gz: No such file or directory
*** Reached end of trace for Core: 0 Repeating trace: /data/lbm_1004B.trace.gz
gzip: /data/lbm_1004B.trace.gz: No such file or directory
*** Reached end of trace for Core: 0 Repeating trace: /data/lbm_1004B.trace.gz
gzip: /data/lbm_1004B.trace.gz: No such file or directory
*** Reached end of trace for Core: 0 Repeating trace: /data/lbm_1004B.trace.gz
gzip: /data/lbm_1004B.trace.gz: No such file or directory
*** Reached end of trace for Core: 0 Repeating trace: /data/lbm_1004B.trace.gz
gzip: /data/lbm_1004B.trace.gz: No such file or directory
*** Reached end of trace for Core: 0 Repeating trace: /data/lbm_1004B.trace.gz
gzip: /data/lbm_1004B.trace.gz: No such file or directory
*** Reached end of trace for Core: 0 Repeating trace: /data/lbm_1004B.trace.gz
gzip: /data/lbm_1004B.trace.gz: No such file or directory
*** Reached end of trace for Core: 0 Repeating trace: /data/lbm_1004B.trace.gz
gzip: /data/lbm_1004B.trace.gz: No such file or directory
*** Reached end of trace for Core: 0 Repeating trace: /data/lbm_1004B.trace.gz
gzip: /data/lbm_1004B.trace.gz: No such file or directory
*** Reached end of trace for Core: 0 Repeating trace: /data/lbm_1004B.trace.gz
gzip: /data/lbm_1004B.trace.gz: No such file or directory
*** Reached end of trace for Core: 0 Repeating trace: /data/lbm_1004B.trace.gz
gzip: /data/lbm_1004B.trace.gz: No such file or directory
*** Reached end of trace for Core: 0 Repeating trace: /data/lbm_1004B.trace.gz
gzip: /data/lbm_1004B.trace.gz: No such file or directory
*** Reached end of trace for Core: 0 Repeating trace: /data/lbm_1004B.trace.gz
gzip: /data/lbm_1004B.trace.gz: No such file or directory
*** Reached end of trace for Core: 0 Repeating trace: /data/lbm_1004B.trace.gz
gzip: /data/lbm_1004B.trace.gz: No such file or directory
*** Reached end of trace for Core: 0 Repeating trace: /data/lbm_1004B.trace.gz
gzip: /data/lbm_1004B.trace.gz: No such file or directory
*** Reached end of trace for Core: 0 Repeating trace: /data/lbm_1004B.trace.gz
gzip: /data/lbm_1004B.trace.gz: No such file or directory
*** Reached end of trace for Core: 0 Repeating trace: /data/lbm_1004B.trace.gz
gzip: /data/lbm_1004B.trace.gz: No such file or directory
*** Reached end of trace for Core: 0 Repeating trace: /data/lbm_1004B.trace.gz
gzip: /data/lbm_1004B.trace.gz: No such file or directory
*** Reached end of trace for Core: 0 Repeating trace: /data/lbm_1004B.trace.gz
gzip: /data/lbm_1004B.trace.gz: No such file or directory
*** Reached end of trace for Core: 0 Repeating trace: /data/lbm_1004B.trace.gz
gzip: /data/lbm_1004B.trace.gz: No such file or directory
*** Reached end of trace for Core: 0 Repeating trace: /data/lbm_1004B.trace.gz
gzip: /data/lbm_1004B.trace.gz: No such file or directory
*** Reached end of trace for Core: 0 Repeating trace: /data/lbm_1004B.trace.gz
gzip: /data/lbm_1004B.trace.gz: No such file or directory
*** Reached end of trace for Core: 0 Repeating trace: /data/lbm_1004B.trace.gz
gzip: /data/lbm_1004B.trace.gz: No such file or directory
*** Reached end of trace for Core: 0 Repeating trace: /data/lbm_1004B.trace.gz
gzip: /data/lbm_1004B.trace.gz: No such file or directory
*** Reached end of trace for Core: 0 Repeating trace: /data/lbm_1004B.trace.gz
gzip: /data/lbm_1004B.trace.gz: No such file or directory
*** Reached end of trace for Core: 0 Repeating trace: /data/lbm_1004B.trace.gz
gzip: /data/lbm_1004B.trace.gz: No such file or directory
*** Reached end of trace for Core: 0 Repeating trace: /data/lbm_1004B.trace.gz
gzip: /data/lbm_1004B.trace.gz: No such file or directory
*** Reached end of trace for Core: 0 Repeating trace: /data/lbm_1004B.trace.gz
gzip: /data/lbm_1004B.trace.gz: No such file or directory
*** Reached end of trace for Core: 0 Repeating trace: /data/lbm_1004B.trace.gz
gzip: /data/lbm_1004B.trace.gz: No such file or directory
*** Reached end of trace for Core: 0 Repeating trace: /data/lbm_1004B.trace.gz
gzip: /data/lbm_1004B.trace.gz: No such file or directory
*** Reached end of trace for Core: 0 Repeating trace: /data/lbm_1004B.trace.gz
gzip: /data/lbm_1004B.trace.gz: No such file or directory
*** Reached end of trace for Core: 0 Repeating trace: /data/lbm_1004B.trace.gz
gzip: /data/lbm_1004B.trace.gz: No such file or directory
*** Reached end of trace for Core: 0 Repeating trace: /data/lbm_1004B.trace.gz
gzip: /data/lbm_1004B.trace.gz: No such file or directory
*** Reached end of trace for Core: 0 Repeating trace: /data/lbm_1004B.trace.gz
gzip: /data/lbm_1004B.trace.gz: No such file or directory
*** Reached end of trace for Core: 0 Repeating trace: /data/lbm_1004B.trace.gz
gzip: /data/lbm_1004B.trace.gz: No such file or directory
*** Reached end of trace for Core: 0 Repeating trace: /data/lbm_1004B.trace.gz
gzip: /data/lbm_1004B.trace.gz: No such file or directory
*** Reached end of trace for Core: 0 Repeating trace: /data/lbm_1004B.trace.gz
gzip: /data/lbm_1004B.trace.gz: No such file or directory
*** Reached end of trace for Core: 0 Repeating trace: /data/lbm_1004B.trace.gz
gzip: /data/lbm_1004B.trace.gz: No such file or directory
*** Reached end of trace for Core: 0 Repeating trace: /data/lbm_1004B.trace.gz
gzip: /data/lbm_1004B.trace.gz: No such file or directory
*** Reached end of trace for Core: 0 Repeating trace: /data/lbm_1004B.trace.gz
gzip: /data/lbm_1004B.trace.gz: No such file or directory
*** Reached end of trace for Core: 0 Repeating trace: /data/lbm_1004B.trace.gz
gzip: /data/lbm_1004B.trace.gz: No such file or directory
*** Reached end of trace for Core: 0 Repeating trace: /data/lbm_1004B.trace.gz
gzip: /data/lbm_1004B.trace.gz: No such file or directory
*** Reached end of trace for Core: 0 Repeating trace: /data/lbm_1004B.trace.gz
gzip: /data/lbm_1004B.trace.gz: No such file or directory
*** Reached end of trace for Core: 0 Repeating trace: /data/lbm_1004B.trace.gz
gzip: /data/lbm_1004B.trace.gz: No such file or directory
*** Reached end of trace for Core: 0 Repeating trace: /data/lbm_1004B.trace.gz
gzip: /data/lbm_1004B.trace.gz: No such file or directory
*** Reached end of trace for Core: 0 Repeating trace: /data/lbm_1004B.trace.gz
gzip: /data/lbm_1004B.trace.gz: No such file or directory
*** Reached end of trace for Core: 0 Repeating trace: /data/lbm_1004B.trace.gz
gzip: /data/lbm_1004B.trace.gz: No such file or directory
*** Reached end of trace for Core: 0 Repeating trace: /data/lbm_1004B.trace.gz
gzip: /data/lbm_1004B.trace.gz: No such file or directory
*** Reached end of trace for Core: 0 Repeating trace: /data/lbm_1004B.trace.gz
gzip: /data/lbm_1004B.trace.gz: No such file or directory
*** Reached end of trace for Core: 0 Repeating trace: /data/lbm_1004B.trace.gz
gzip: /data/lbm_1004B.trace.gz: No such file or directory
*** Reached end of trace for Core: 0 Repeating trace: /data/lbm_1004B.trace.gz
gzip: /data/lbm_1004B.trace.gz: No such file or directory
*** Reached end of trace for Core: 0 Repeating trace: /data/lbm_1004B.trace.gz
gzip: /data/lbm_1004B.trace.gz: No such file or directory
*** Reached end of trace for Core: 0 Repeating trace: /data/lbm_1004B.trace.gz
gzip: /data/lbm_1004B.trace.gz: No such file or directory
*** Reached end of trace for Core: 0 Repeating trace: /data/lbm_1004B.trace.gz
gzip: /data/lbm_1004B.trace.gz: No such file or directory
*** Reached end of trace for Core: 0 Repeating trace: /data/lbm_1004B.trace.gz
gzip: /data/lbm_1004B.trace.gz: No such file or directory
*** Reached end of trace for Core: 0 Repeating trace: /data/lbm_1004B.trace.gz
gzip: /data/lbm_1004B.trace.gz: No such file or directory
*** Reached end of trace for Core: 0 Repeating trace: /data/lbm_1004B.trace.gz
gzip: /data/lbm_1004B.trace.gz: No such file or directory
*** Reached end of trace for Core: 0 Repeating trace: /data/lbm_1004B.trace.gz
gzip: /data/lbm_1004B.trace.gz: No such file or directory
*** Reached end of trace for Core: 0 Repeating trace: /data/lbm_1004B.trace.gz
gzip: /data/lbm_1004B.trace.gz: No such file or directory
*** Reached end of trace for Core: 0 Repeating trace: /data/lbm_1004B.trace.gz
gzip: /data/lbm_1004B.trace.gz: No such file or directory
*** Reached end of trace for Core: 0 Repeating trace: /data/lbm_1004B.trace.gz
gzip: /data/lbm_1004B.trace.gz: No such file or directory
*** Reached end of trace for Core: 0 Repeating trace: /data/lbm_1004B.trace.gz
gzip: /data/lbm_1004B.trace.gz: No such file or directory
*** Reached end of trace for Core: 0 Repeating trace: /data/lbm_1004B.trace.gz
gzip: /data/lbm_1004B.trace.gz: No such file or directory
*** Reached end of trace for Core: 0 Repeating trace: /data/lbm_1004B.trace.gz
gzip: /data/lbm_1004B.trace.gz: No such file or directory
*** Reached end of trace for Core: 0 Repeating trace: /data/lbm_1004B.trace.gz
gzip: /data/lbm_1004B.trace.gz: No such file or directory
*** Reached end of trace for Core: 0 Repeating trace: /data/lbm_1004B.trace.gz
gzip: /data/lbm_1004B.trace.gz: No such file or directory
*** Reached end of trace for Core: 0 Repeating trace: /data/lbm_1004B.trace.gz
gzip: /data/lbm_1004B.trace.gz: No such file or directory
*** Reached end of trace for Core: 0 Repeating trace: /data/lbm_1004B.trace.gz
gzip: /data/lbm_1004B.trace.gz: No such file or directory
*** Reached end of trace for Core: 0 Repeating trace: /data/lbm_1004B.trace.gz
gzip: /data/lbm_1004B.trace.gz: No such file or directory
*** Reached end of trace for Core: 0 Repeating trace: /data/lbm_1004B.trace.gz
gzip: /data/lbm_1004B.trace.gz: No such file or directory
*** Reached end of trace for Core: 0 Repeating trace: /data/lbm_1004B.trace.gz
gzip: /data/lbm_1004B.trace.gz: No such file or directory
*** Reached end of trace for Core: 0 Repeating trace: /data/lbm_1004B.trace.gz
gzip: /data/lbm_1004B.trace.gz: No such file or directory
*** Reached end of trace for Core: 0 Repeating trace: /data/lbm_1004B.trace.gz
gzip: /data/lbm_1004B.trace.gz: No such file or directory
*** Reached end of trace for Core: 0 Repeating trace: /data/lbm_1004B.trace.gz
gzip: /data/lbm_1004B.trace.gz: No such file or directory
*** Reached end of trace for Core: 0 Repeating trace: /data/lbm_1004B.trace.gz
gzip: /data/lbm_1004B.trace.gz: No such file or directory
*** Reached end of trace for Core: 0 Repeating trace: /data/lbm_1004B.trace.gz
gzip: /data/lbm_1004B.trace.gz: No such file or directory
*** Reached end of trace for Core: 0 Repeating trace: /data/lbm_1004B.trace.gz
gzip: /data/lbm_1004B.trace.gz: No such file or directory
*** Reached end of trace for Core: 0 Repeating trace: /data/lbm_1004B.trace.gz
gzip: /data/lbm_1004B.trace.gz: No such file or directory
*** Reached end of trace for Core: 0 Repeating trace: /data/lbm_1004B.trace.gz
gzip: /data/lbm_1004B.trace.gz: No such file or directory
*** Reached end of trace for Core: 0 Repeating trace: /data/lbm_1004B.trace.gz
gzip: /data/lbm_1004B.trace.gz: No such file or directory
*** Reached end of trace for Core: 0 Repeating trace: /data/lbm_1004B.trace.gz
gzip: /data/lbm_1004B.trace.gz: No such file or directory
*** Reached end of trace for Core: 0 Repeating trace: /data/lbm_1004B.trace.gz
gzip: /data/lbm_1004B.trace.gz: No such file or directory
*** Reached end of trace for Core: 0 Repeating trace: /data/lbm_1004B.trace.gz
gzip: /data/lbm_1004B.trace.gz: No such file or directory
*** Reached end of trace for Core: 0 Repeating trace: /data/lbm_1004B.trace.gz
gzip: /data/lbm_1004B.trace.gz: No such file or directory
*** Reached end of trace for Core: 0 Repeating trace: /data/lbm_1004B.trace.gz
gzip: /data/lbm_1004B.trace.gz: No such file or directory
*** Reached end of trace for Core: 0 Repeating trace: /data/lbm_1004B.trace.gz
gzip: /data/lbm_1004B.trace.gz: No such file or directory
*** Reached end of trace for Core: 0 Repeating trace: /data/lbm_1004B.trace.gz
gzip: /data/lbm_1004B.trace.gz: No such file or directory
*** Reached end of trace for Core: 0 Repeating trace: /data/lbm_1004B.trace.gz
gzip: /data/lbm_1004B.trace.gz: No such file or directory
*** Reached end of trace for Core: 0 Repeating trace: /data/lbm_1004B.trace.gz
gzip: /data/lbm_1004B.trace.gz: No such file or directory
*** Reached end of trace for Core: 0 Repeating trace: /data/lbm_1004B.trace.gz
gzip: /data/lbm_1004B.trace.gz: No such file or directory
*** Reached end of trace for Core: 0 Repeating trace: /data/lbm_1004B.trace.gz
gzip: /data/lbm_1004B.trace.gz: No such file or directory
*** Reached end of trace for Core: 0 Repeating trace: /data/lbm_1004B.trace.gz
gzip: /data/lbm_1004B.trace.gz: No such file or directory
*** Reached end of trace for Core: 0 Repeating trace: /data/lbm_1004B.trace.gz
gzip: /data/lbm_1004B.trace.gz: No such file or directory
*** Reached end of trace for Core: 0 Repeating trace: /data/lbm_1004B.trace.gz
gzip: /data/lbm_1004B.trace.gz: No such file or directory
*** Reached end of trace for Core: 0 Repeating trace: /data/lbm_1004B.trace.gz
gzip: /data/lbm_1004B.trace.gz: No such file or directory
*** Reached end of trace for Core: 0 Repeating trace: /data/lbm_1004B.trace.gz
gzip: /data/lbm_1004B.trace.gz: No such file or directory
*** Reached end of trace for Core: 0 Repeating trace: /data/lbm_1004B.trace.gz
gzip: /data/lbm_1004B.trace.gz: No such file or directory
*** Reached end of trace for Core: 0 Repeating trace: /data/lbm_1004B.trace.gz
gzip: /data/lbm_1004B.trace.gz: No such file or directory
*** Reached end of trace for Core: 0 Repeating trace: /data/lbm_1004B.trace.gz
gzip: /data/lbm_1004B.trace.gz: No such file or directory
*** Reached end of trace for Core: 0 Repeating trace: /data/lbm_1004B.trace.gz
gzip: /data/lbm_1004B.trace.gz: No such file or directory
*** Reached end of trace for Core: 0 Repeating trace: /data/lbm_1004B.trace.gz
gzip: /data/lbm_1004B.trace.gz: No such file or directory
*** Reached end of trace for Core: 0 Repeating trace: /data/lbm_1004B.trace.gz
gzip: /data/lbm_1004B.trace.gz: No such file or directory
*** Reached end of trace for Core: 0 Repeating trace: /data/lbm_1004B.trace.gz
gzip: /data/lbm_1004B.trace.gz: No such file or directory
*** Reached end of trace for Core: 0 Repeating trace: /data/lbm_1004B.trace.gz
gzip: /data/lbm_1004B.trace.gz: No such file or directory
*** Reached end of trace for Core: 0 Repeating trace: /data/lbm_1004B.trace.gz
gzip: /data/lbm_1004B.trace.gz: No such file or directory
*** Reached end of trace for Core: 0 Repeating trace: /data/lbm_1004B.trace.gz
gzip: /data/lbm_1004B.trace.gz: No such file or directory
*** Reached end of trace for Core: 0 Repeating trace: /data/lbm_1004B.trace.gz
gzip: /data/lbm_1004B.trace.gz: No such file or directory
*** Reached end of trace for Core: 0 Repeating trace: /data/lbm_1004B.trace.gz
gzip: /data/lbm_1004B.trace.gz: No such file or directory
*** Reached end of trace for Core: 0 Repeating trace: /data/lbm_1004B.trace.gz
gzip: /data/lbm_1004B.trace.gz: No such file or directory
*** Reached end of trace for Core: 0 Repeating trace: /data/lbm_1004B.trace.gz
gzip: /data/lbm_1004B.trace.gz: No such file or directory
*** Reached end of trace for Core: 0 Repeating trace: /data/lbm_1004B.trace.gz
gzip: /data/lbm_1004B.trace.gz: No such file or directory
*** Reached end of trace for Core: 0 Repeating trace: /data/lbm_1004B.trace.gz
gzip: /data/lbm_1004B.trace.gz: No such file or directory
*** Reached end of trace for Core: 0 Repeating trace: /data/lbm_1004B.trace.gz
gzip: /data/lbm_1004B.trace.gz: No such file or directory
*** Reached end of trace for Core: 0 Repeating trace: /data/lbm_1004B.trace.gz
gzip: /data/lbm_1004B.trace.gz: No such file or directory
*** Reached end of trace for Core: 0 Repeating trace: /data/lbm_1004B.trace.gz
gzip: /data/lbm_1004B.trace.gz: No such file or directory
*** Reached end of trace for Core: 0 Repeating trace: /data/lbm_1004B.trace.gz
gzip: /data/lbm_1004B.trace.gz: No such file or directory
*** Reached end of trace for Core: 0 Repeating trace: /data/lbm_1004B.trace.gz
gzip: /data/lbm_1004B.trace.gz: No such file or directory
*** Reached end of trace for Core: 0 Repeating trace: /data/lbm_1004B.trace.gz
gzip: /data/lbm_1004B.trace.gz: No such file or directory
*** Reached end of trace for Core: 0 Repeating trace: /data/lbm_1004B.trace.gz
gzip: /data/lbm_1004B.trace.gz: No such file or directory
*** Reached end of trace for Core: 0 Repeating trace: /data/lbm_1004B.trace.gz
gzip: /data/lbm_1004B.trace.gz: No such file or directory
*** Reached end of trace for Core: 0 Repeating trace: /data/lbm_1004B.trace.gz
gzip: /data/lbm_1004B.trace.gz: No such file or directory
*** Reached end of trace for Core: 0 Repeating trace: /data/lbm_1004B.trace.gz
gzip: /data/lbm_1004B.trace.gz: No such file or directory
*** Reached end of trace for Core: 0 Repeating trace: /data/lbm_1004B.trace.gz
gzip: /data/lbm_1004B.trace.gz: No such file or directory
*** Reached end of trace for Core: 0 Repeating trace: /data/lbm_1004B.trace.gz
gzip: /data/lbm_1004B.trace.gz: No such file or directory
*** Reached end of trace for Core: 0 Repeating trace: /data/lbm_1004B.trace.gz
gzip: /data/lbm_1004B.trace.gz: No such file or directory
[...]
*** Reached end of trace for Core: 0 Repeating trace: /data/lbm_1004B.trace.gz
gzip: /data/lbm_1004B.trace.gz: No such file or directory
*** Reached end of trace for Core: 0 Repeating trace: /data/lbm_1004B.trace.gz
gzip: /data/lbm_1004B.trace.gz: No such file or directory
*** Reached end of trace for Core: 0 Repeating trace: /data/lbm_1004B.trace.gz
gzip: /data/lbm_1004B.trace.gz: No such file or directory
*** Reached end of trace for Core: 0 Repeating trace: /data/lbm_1004B.trace.gz
gzip: /data/lbm_1004B.trace.gz: No such file or directory
*** Reached end of trace for Core: 0 Repeating trace: /data/lbm_1004B.trace.gz
gzip: /data/lbm_1004B.trace.gz: No such file or directory
*** Reached end of trace for Core: 0 Repeating trace: /data/lbm_1004B.trace.gz
gzip: /data/lbm_1004B.trace.gz: No such file or directory
*** Reached end of trace for Core: 0 Repeating trace: /data/lbm_1004B.trace.gz
gzip: /data/lbm_1004B.trace.gz: No such file or directory
*** Reached end of trace for Core: 0 Repeating trace: /data/lbm_1004B.trace.gz
gzip: /data/lbm_1004B.trace.gz: No such file or directory
*** Reached end of trace for Core: 0 Repeating trace: /data/lbm_1004B.trace.gz
gzip: /data/lbm_1004B.trace.gz: No such file or directory
*** Reached end of trace for Core: 0 Repeating trace: /data/lbm_1004B.trace.gz
gzip: /data/lbm_1004B.trace.gz: No such file or directory
*** Reached end of trace for Core: 0 Repeating trace: /data/lbm_1004B.trace.gz
gzip: /data/lbm_1004B.trace.gz: No such file or directory
*** Reached end of trace for Core: 0 Repeating trace: /data/lbm_1004B.trace.gz
gzip: /data/lbm_1004B.trace.gz: No such file or directory
*** Reached end of trace for Core: 0 Repeating trace: /data/lbm_1004B.trace.gz
gzip: /data/lbm_1004B.trace.gz: No such file or directory
*** Reached end of trace for Core: 0 Repeating trace: /data/lbm_1004B.trace.gz
gzip: /data/lbm_1004B.trace.gz: No such file or directory
*** Reached end of trace for Core: 0 Repeating trace: /data/lbm_1004B.trace.gz
gzip: /data/lbm_1004B.trace.gz: No such file or directory
*** Reached end of trace for Core: 0 Repeating trace: /data/lbm_1004B.trace.gz
gzip: /data/lbm_1004B.trace.gz: No such file or directory
*** Reached end of trace for Core: 0 Repeating trace: /data/lbm_1004B.trace.gz
gzip: /data/lbm_1004B.trace.gz: No such file or directory
*** Reached end of trace for Core: 0 Repeating trace: /data/lbm_1004B.trace.gz
gzip: /data/lbm_1004B.trace.gz: No such file or directory
*** Reached end of trace for Core: 0 Repeating trace: /data/lbm_1004B.trace.gz
gzip: /data/lbm_1004B.trace.gz: No such file or directory
*** Reached end of trace for Core: 0 Repeating trace: /data/lbm_1004B.trace.gz
gzip: /data/lbm_1004B.trace.gz: No such file or directory
*** Reached end of trace for Core: 0 Repeating trace: /data/lbm_1004B.trace.gz
gzip: /data/lbm_1004B.trace.gz: No such file or directory
*** Reached end of trace for Core: 0 Repeating trace: /data/lbm_1004B.trace.gz
gzip: /data/lbm_1004B.trace.gz: No such file or directory
*** Reached end of trace for Core: 0 Repeating trace: /data/lbm_1004B.trace.gz
gzip: /data/lbm_1004B.trace.gz: No such file or directory
*** Reached end of trace for Core: 0 Repeating trace: /data/lbm_1004B.trace.gz
gzip: /data/lbm_1004B.trace.gz: No such file or directory
*** Reached end of trace for Core: 0 Repeating trace: /data/lbm_1004B.trace.gz
gzip: /data/lbm_1004B.trace.gz: No such file or directory
*** Reached end of trace for Core: 0 Repeating trace: /data/lbm_1004B.trace.gz
gzip: /data/lbm_1004B.trace.gz: No such file or directory
*** Reached end of trace for Core: 0 Repeating trace: /data/lbm_1004B.trace.gz
gzip: /data/lbm_1004B.trace.gz: No such file or directory
*** Reached end of trace for Core: 0 Repeating trace: /data/lbm_1004B.trace.gz
gzip: /data/lbm_1004B.trace.gz: No such file or directory
*** Reached end of trace for Core: 0 Repeating trace: /data/lbm_1004B.trace.gz
gzip: /data/lbm_1004B.trace.gz: No such file or directory
*** Reached end of trace for Core: 0 Repeating trace: /data/lbm_1004B.trace.gz
gzip: /data/lbm_1004B.trace.gz: No such file or directory
*** Reached end of trace for Core: 0 Repeating trace: /data/lbm_1004B.trace.gz
gzip: /data/lbm_1004B.trace.gz: No such file or directory
*** Reached end of trace for Core: 0 Repeating trace: /data/lbm_1004B.trace.gz
gzip: /data/lbm_1004B.trace.gz: No such file or directory
*** Reached end of trace for Core: 0 Repeating trace: /data/lbm_1004B.trace.gz
gzip: /data/lbm_1004B.trace.gz: No such file or directory
*** Reached end of trace for Core: 0 Repeating trace: /data/lbm_1004B.trace.gz
gzip: /data/lbm_1004B.trace.gz: No such file or directory
*** Reached end of trace for Core: 0 Repeating trace: /data/lbm_1004B.trace.gz
gzip: /data/lbm_1004B.trace.gz: No such file or directory
*** Reached end of trace for Core: 0 Repeating trace: /data/lbm_1004B.trace.gz
gzip: /data/lbm_1004B.trace.gz: No such file or directory
*** Reached end of trace for Core: 0 Repeating trace: /data/lbm_1004B.trace.gz
gzip: /data/lbm_1004B.trace.gz: No such file or directory
*** Reached end of trace for Core: 0 Repeating trace: /data/lbm_1004B.trace.gz
gzip: /data/lbm_1004B.trace.gz: No such file or directory
*** Reached end of trace for Core: 0 Repeating trace: /data/lbm_1004B.trace.gz
gzip: /data/lbm_1004B.trace.gz: No such file or directory
*** Reached end of trace for Core: 0 Repeating trace: /data/lbm_1004B.trace.gz
gzip: /data/lbm_1004B.trace.gz: No such file or directory
*** Reached end of trace for Core: 0 Repeating trace: /data/lbm_1004B.trace.gz
gzip: /data/lbm_1004B.trace.gz: No such file or directory
*** Reached end of trace for Core: 0 Repeating trace: /data/lbm_1004B.trace.gz
gzip: /data/lbm_1004B.trace.gz: No such file or directory
*** Reached end of trace for Core: 0 Repeating trace: /data/lbm_1004B.trace.gz
gzip: /data/lbm_1004B.trace.gz: No such file or directory
*** Reached end of trace for Core: 0 Repeating trace: /data/lbm_1004B.trace.gz
gzip: /data/lbm_1004B.trace.gz: No such file or directory
*** Reached end of trace for Core: 0 Repeating trace: /data/lbm_1004B.trace.gz
gzip: /data/lbm_1004B.trace.gz: No such file or directory
*** Reached end of trace for Core: 0 Repeating trace: /data/lbm_1004B.trace.gz
gzip: /data/lbm_1004B.trace.gz: No such file or directory
*** Reached end of trace for Core: 0 Repeating trace: /data/lbm_1004B.trace.gz
gzip: /data/lbm_1004B.trace.gz: No such file or directory
*** Reached end of trace for Core: 0 Repeating trace: /data/lbm_1004B.trace.gz
gzip: /data/lbm_1004B.trace.gz: No such file or directory
*** Reached end of trace for Core: 0 Repeating trace: /data/lbm_1004B.trace.gz
gzip: /data/lbm_1004B.trace.gz: No such file or directory
*** Reached end of trace for Core: 0 Repeating trace: /data/lbm_1004B.trace.gz
gzip: /data/lbm_1004B.trace.gz: No such file or directory
*** Reached end of trace for Core: 0 Repeating trace: /data/lbm_1004B.trace.gz
gzip: /data/lbm_1004B.trace.gz: No such file or directory
*** Reached end of trace for Core: 0 Repeating trace: /data/lbm_1004B.trace.gz
gzip: /data/lbm_1004B.trace.gz: No such file or directory
*** Reached end of trace for Core: 0 Repeating trace: /data/lbm_1004B.trace.gz
gzip: /data/lbm_1004B.trace.gz: No such file or directory
*** Reached end of trace for Core: 0 Repeating trace: /data/lbm_1004B.trace.gz
gzip: /data/lbm_1004B.trace.gz: No such file or directory
*** Reached end of trace for Core: 0 Repeating trace: /data/lbm_1004B.trace.gz
gzip: /data/lbm_1004B.trace.gz: No such file or directory
*** Reached end of trace for Core: 0 Repeating trace: /data/lbm_1004B.trace.gz
gzip: /data/lbm_1004B.trace.gz: No such file or directory
*** Reached end of trace for Core: 0 Repeating trace: /data/lbm_1004B.trace.gz
gzip: /data/lbm_1004B.trace.gz: No such file or directory
*** Reached end of trace for Core: 0 Repeating trace: /data/lbm_1004B.trace.gz
gzip: /data/lbm_1004B.trace.gz: No such file or directory
*** Reached end of trace for Core: 0 Repeating trace: /data/lbm_1004B.trace.gz
gzip: /data/lbm_1004B.trace.gz: No such file or directory
*** Reached end of trace for Core: 0 Repeating trace: /data/lbm_1004B.trace.gz
gzip: /data/lbm_1004B.trace.gz: No such file or directory
*** Reached end of trace for Core: 0 Repeating trace: /data/lbm_1004B.trace.gz
gzip: /data/lbm_1004B.trace.gz: No such file or directory
*** Reached end of trace for Core: 0 Repeating trace: /data/lbm_1004B.trace.gz
gzip: /data/lbm_1004B.trace.gz: No such file or directory
*** Reached end of trace for Core: 0 Repeating trace: /data/lbm_1004B.trace.gz
gzip: /data/lbm_1004B.trace.gz: No such file or directory
*** Reached end of trace for Core: 0 Repeating trace: /data/lbm_1004B.trace.gz
gzip: /data/lbm_1004B.trace.gz: No such file or directory
*** Reached end of trace for Core: 0 Repeating trace: /data/lbm_1004B.trace.gz
gzip: /data/lbm_1004B.trace.gz: No such file or directory
*** Reached end of trace for Core: 0 Repeating trace: /data/lbm_1004B.trace.gz
gzip: /data/lbm_1004B.trace.gz: No such file or directory
*** Reached end of trace for Core: 0 Repeating trace: /data/lbm_1004B.trace.gz
gzip: /data/lbm_1004B.trace.gz: No such file or directory
*** Reached end of trace for Core: 0 Repeating trace: /data/lbm_1004B.trace.gz
gzip: /data/lbm_1004B.trace.gz: No such file or directory
*** Reached end of trace for Core: 0 Repeating trace: /data/lbm_1004B.trace.gz
gzip: /data/lbm_1004B.trace.gz: No such file or directory
*** Reached end of trace for Core: 0 Repeating trace: /data/lbm_1004B.trace.gz
gzip: /data/lbm_1004B.trace.gz: No such file or directory
*** Reached end of trace for Core: 0 Repeating trace: /data/lbm_1004B.trace.gz
gzip: /data/lbm_1004B.trace.gz: No such file or directory
*** Reached end of trace for Core: 0 Repeating trace: /data/lbm_1004B.trace.gz
gzip: /data/lbm_1004B.trace.gz: No such file or directory
*** Reached end of trace for Core: 0 Repeating trace: /data/lbm_1004B.trace.gz
gzip: /data/lbm_1004B.trace.gz: No such file or directory
*** Reached end of trace for Core: 0 Repeating trace: /data/lbm_1004B.trace.gz
gzip: /data/lbm_1004B.trace.gz: No such file or directory
*** Reached end of trace for Core: 0 Repeating trace: /data/lbm_1004B.trace.gz
gzip: /data/lbm_1004B.trace.gz: No such file or directory
*** Reached end of trace for Core: 0 Repeating trace: /data/lbm_1004B.trace.gz
gzip: /data/lbm_1004B.trace.gz: No such file or directory
*** Reached end of trace for Core: 0 Repeating trace: /data/lbm_1004B.trace.gz
gzip: /data/lbm_1004B.trace.gz: No such file or directory
*** Reached end of trace for Core: 0 Repeating trace: /data/lbm_1004B.trace.gz
gzip: /data/lbm_1004B.trace.gz: No such file or directory
*** Reached end of trace for Core: 0 Repeating trace: /data/lbm_1004B.trace.gz
gzip: /data/lbm_1004B.trace.gz: No such file or directory
*** Reached end of trace for Core: 0 Repeating trace: /data/lbm_1004B.trace.gz
gzip: /data/lbm_1004B.trace.gz: No such file or directory
*** Reached end of trace for Core: 0 Repeating trace: /data/lbm_1004B.trace.gz
gzip: /data/lbm_1004B.trace.gz: No such file or directory
*** Reached end of trace for Core: 0 Repeating trace: /data/lbm_1004B.trace.gz
gzip: /data/lbm_1004B.trace.gz: No such file or directory
*** Reached end of trace for Core: 0 Repeating trace: /data/lbm_1004B.trace.gz
gzip: /data/lbm_1004B.trace.gz: No such file or directory
*** Reached end of trace for Core: 0 Repeating trace: /data/lbm_1004B.trace.gz
gzip: /data/lbm_1004B.trace.gz: No such file or directory
*** Reached end of trace for Core: 0 Repeating trace: /data/lbm_1004B.trace.gz
gzip: /data/lbm_1004B.trace.gz: No such file or directory
*** Reached end of trace for Core: 0 Repeating trace: /data/lbm_1004B.trace.gz
gzip: /data/lbm_1004B.trace.gz: No such file or directory
*** Reached end of trace for Core: 0 Repeating trace: /data/lbm_1004B.trace.gz
gzip: /data/lbm_1004B.trace.gz: No such file or directory
*** Reached end of trace for Core: 0 Repeating trace: /data/lbm_1004B.trace.gz
gzip: /data/lbm_1004B.trace.gz: No such file or directory
*** Reached end of trace for Core: 0 Repeating trace: /data/lbm_1004B.trace.gz
gzip: /data/lbm_1004B.trace.gz: No such file or directory
*** Reached end of trace for Core: 0 Repeating trace: /data/lbm_1004B.trace.gz
gzip: /data/lbm_1004B.trace.gz: No such file or directory
*** Reached end of trace for Core: 0 Repeating trace: /data/lbm_1004B.trace.gz
gzip: /data/lbm_1004B.trace.gz: No such file or directory
*** Reached end of trace for Core: 0 Repeating trace: /data/lbm_1004B.trace.gz
gzip: /data/lbm_1004B.trace.gz: No such file or directory
*** Reached end of trace for Core: 0 Repeating trace: /data/lbm_1004B.trace.gz
gzip: /data/lbm_1004B.trace.gz: No such file or directory
*** Reached end of trace for Core: 0 Repeating trace: /data/lbm_1004B.trace.gz
gzip: /data/lbm_1004B.trace.gz: No such file or directory
*** Reached end of trace for Core: 0 Repeating trace: /data/lbm_1004B.trace.gz
gzip: /data/lbm_1004B.trace.gz: No such file or directory
*** Reached end of trace for Core: 0 Repeating trace: /data/lbm_1004B.trace.gz
gzip: /data/lbm_1004B.trace.gz: No such file or directory
*** Reached end of trace for Core: 0 Repeating trace: /data/lbm_1004B.trace.gz
gzip: /data/lbm_1004B.trace.gz: No such file or directory
*** Reached end of trace for Core: 0 Repeating trace: /data/lbm_1004B.trace.gz
gzip: /data/lbm_1004B.trace.gz: No such file or directory
*** Reached end of trace for Core: 0 Repeating trace: /data/lbm_1004B.trace.gz
gzip: /data/lbm_1004B.trace.gz: No such file or directory
*** Reached end of trace for Core: 0 Repeating trace: /data/lbm_1004B.trace.gz
gzip: /data/lbm_1004B.trace.gz: No such file or directory
*** Reached end of trace for Core: 0 Repeating trace: /data/lbm_1004B.trace.gz
gzip: /data/lbm_1004B.trace.gz: No such file or directory
*** Reached end of trace for Core: 0 Repeating trace: /data/lbm_1004B.trace.gz
gzip: /data/lbm_1004B.trace.gz: No such file or directory
*** Reached end of trace for Core: 0 Repeating trace: /data/lbm_1004B.trace.gz
gzip: /data/lbm_1004B.trace.gz: No such file or directory
*** Reached end of trace for Core: 0 Repeating trace: /data/lbm_1004B.trace.gz
gzip: /data/lbm_1004B.trace.gz: No such file or directory
*** Reached end of trace for Core: 0 Repeating trace: /data/lbm_1004B.trace.gz
gzip: /data/lbm_1004B.trace.gz: No such file or directory
*** Reached end of trace for Core: 0 Repeating trace: /data/lbm_1004B.trace.gz
gzip: /data/lbm_1004B.trace.gz: No such file or directory
*** Reached end of trace for Core: 0 Repeating trace: /data/lbm_1004B.trace.gz
gzip: /data/lbm_1004B.trace.gz: No such file or directory
*** Reached end of trace for Core: 0 Repeating trace: /data/lbm_1004B.trace.gz
gzip: /data/lbm_1004B.trace.gz: No such file or directory
*** Reached end of trace for Core: 0 Repeating trace: /data/lbm_1004B.trace.gz
gzip: /data/lbm_1004B.trace.gz: No such file or directory
*** Reached end of trace for Core: 0 Repeating trace: /data/lbm_1004B.trace.gz
gzip: /data/lbm_1004B.trace.gz: No such file or directory
*** Reached end of trace for Core: 0 Repeating trace: /data/lbm_1004B.trace.gz
gzip: /data/lbm_1004B.trace.gz: No such file or directory
*** Reached end of trace for Core: 0 Repeating trace: /data/lbm_1004B.trace.gz
gzip: /data/lbm_1004B.trace.gz: No such file or directory
*** Reached end of trace for Core: 0 Repeating trace: /data/lbm_1004B.trace.gz
gzip: /data/lbm_1004B.trace.gz: No such file or directory
*** Reached end of trace for Core: 0 Repeating trace: /data/lbm_1004B.trace.gz
gzip: /data/lbm_1004B.trace.gz: No such file or directory
*** Reached end of trace for Core: 0 Repeating trace: /data/lbm_1004B.trace.gz
gzip: /data/lbm_1004B.trace.gz: No such file or directory
*** Reached end of trace for Core: 0 Repeating trace: /data/lbm_1004B.trace.gz
gzip: /data/lbm_1004B.trace.gz: No such file or directory
*** Reached end of trace for Core: 0 Repeating trace: /data/lbm_1004B.trace.gz
gzip: /data/lbm_1004B.trace.gz: No such file or directory
*** Reached end of trace for Core: 0 Repeating trace: /data/lbm_1004B.trace.gz
gzip: /data/lbm_1004B.trace.gz: No such file or directory
*** Reached end of trace for Core: 0 Repeating trace: /data/lbm_1004B.trace.gz
gzip: /data/lbm_1004B.trace.gz: No such file or directory
*** Reached end of trace for Core: 0 Repeating trace: /data/lbm_1004B.trace.gz
gzip: /data/lbm_1004B.trace.gz: No such file or directory
*** Reached end of trace for Core: 0 Repeating trace: /data/lbm_1004B.trace.gz
gzip: /data/lbm_1004B.trace.gz: No such file or directory
*** Reached end of trace for Core: 0 Repeating trace: /data/lbm_1004B.trace.gz
gzip: /data/lbm_1004B.trace.gz: No such file or directory
*** Reached end of trace for Core: 0 Repeating trace: /data/lbm_1004B.trace.gz
gzip: /data/lbm_1004B.trace.gz: No such file or directory
*** Reached end of trace for Core: 0 Repeating trace: /data/lbm_1004B.trace.gz
gzip: /data/lbm_1004B.trace.gz: No such file or directory
*** Reached end of trace for Core: 0 Repeating trace: /data/lbm_1004B.trace.gz
gzip: /data/lbm_1004B.trace.gz: No such file or directory
*** Reached end of trace for Core: 0 Repeating trace: /data/lbm_1004B.trace.gz
gzip: /data/lbm_1004B.trace.gz: No such file or directory
*** Reached end of trace for Core: 0 Repeating trace: /data/lbm_1004B.trace.gz
gzip: /data/lbm_1004B.trace.gz: No such file or directory
*** Reached end of trace for Core: 0 Repeating trace: /data/lbm_1004B.trace.gz
gzip: /data/lbm_1004B.trace.gz: No such file or directory
*** Reached end of trace for Core: 0 Repeating trace: /data/lbm_1004B.trace.gz
gzip: /data/lbm_1004B.trace.gz: No such file or directory
*** Reached end of trace for Core: 0 Repeating trace: /data/lbm_1004B.trace.gz
gzip: /data/lbm_1004B.trace.gz: No such file or directory
*** Reached end of trace for Core: 0 Repeating trace: /data/lbm_1004B.trace.gz
gzip: /data/lbm_1004B.trace.gz: No such file or directory
*** Reached end of trace for Core: 0 Repeating trace: /data/lbm_1004B.trace.gz
gzip: /data/lbm_1004B.trace.gz: No such file or directory
*** Reached end of trace for Core: 0 Repeating trace: /data/lbm_1004B.trace.gz
gzip: /data/lbm_1004B.trace.gz: No such file or directory
*** Reached end of trace for Core: 0 Repeating trace: /data/lbm_1004B.trace.gz
gzip: /data/lbm_1004B.trace.gz: No such file or directory
*** Reached end of trace for Core: 0 Repeating trace: /data/lbm_1004B.trace.gz
gzip: /data/lbm_1004B.trace.gz: No such file or directory
*** Reached end of trace for Core: 0 Repeating trace: /data/lbm_1004B.trace.gz
gzip: /data/lbm_1004B.trace.gz: No such file or directory
*** Reached end of trace for Core: 0 Repeating trace: /data/lbm_1004B.trace.gz
gzip: /data/lbm_1004B.trace.gz: No such file or directory
*** Reached end of trace for Core: 0 Repeating trace: /data/lbm_1004B.trace.gz
gzip: /data/lbm_1004B.trace.gz: No such file or directory
*** Reached end of trace for Core: 0 Repeating trace: /data/lbm_1004B.trace.gz
gzip: /data/lbm_1004B.trace.gz: No such file or directory
*** Reached end of trace for Core: 0 Repeating trace: /data/lbm_1004B.trace.gz
gzip: /data/lbm_1004B.trace.gz: No such file or directory
*** Reached end of trace for Core: 0 Repeating trace: /data/lbm_1004B.trace.gz
gzip: /data/lbm_1004B.trace.gz: No such file or directory
*** Reached end of trace for Core: 0 Repeating trace: /data/lbm_1004B.trace.gz
gzip: /data/lbm_1004B.trace.gz: No such file or directory
*** Reached end of trace for Core: 0 Repeating trace: /data/lbm_1004B.trace.gz
gzip: /data/lbm_1004B.trace.gz: No such file or directory
*** Reached end of trace for Core: 0 Repeating trace: /data/lbm_1004B.trace.gz
gzip: /data/lbm_1004B.trace.gz: No such file or directory
*** Reached end of trace for Core: 0 Repeating trace: /data/lbm_1004B.trace.gz
gzip: /data/lbm_1004B.trace.gz: No such file or directory
*** Reached end of trace for Core: 0 Repeating trace: /data/lbm_1004B.trace.gz
