
*** ChampSim Multicore Out-of-Order Simulator ***

Warmup Instructions: 20000000
Simulation Instructions: 80000000
Number of CPUs: 4
LLC sets: 8192
LLC ways: 16
Off-chip DRAM Size: 4096 MB Channels: 1 Width: 256-bit Data Rate: 1600 MT/s

gzip: ./data/.trace.gz: No such file or directory
gzip: ./data/.trace.gz: No such file or directory
gzip: ./data/.trace.gz: No such file or directory
CPU 0 runs ./data/.trace.gz
CPU 1 runs ./data/.trace.gz
CPU 2 runs ./data/.trace.gz
CPU 3 runs ./data/.trace.gz
*** Reached end of trace for Core: 0 Repeating trace: ./data/.trace.gz
gzip: ./data/.trace.gz: No such file or directory
gzip: ./data/.trace.gz: No such file or directory
*** Reached end of trace for Core: 0 Repeating trace: ./data/.trace.gz
gzip: ./data/.trace.gz: No such file or directory
*** Reached end of trace for Core: 0 Repeating trace: ./data/.trace.gz
gzip: ./data/.trace.gz: No such file or directory
*** Reached end of trace for Core: 0 Repeating trace: ./data/.trace.gz
gzip: ./data/.trace.gz: No such file or directory
*** Reached end of trace for Core: 0 Repeating trace: ./data/.trace.gz
gzip: ./data/.trace.gz: No such file or directory
*** Reached end of trace for Core: 0 Repeating trace: ./data/.trace.gz
gzip: ./data/.trace.gz: No such file or directory
*** Reached end of trace for Core: 0 Repeating trace: ./data/.trace.gz
gzip: ./data/.trace.gz: No such file or directory
*** Reached end of trace for Core: 0 Repeating trace: ./data/.trace.gz
gzip: ./data/.trace.gz: No such file or directory
*** Reached end of trace for Core: 0 Repeating trace: ./data/.trace.gz
gzip: ./data/.trace.gz: No such file or directory
*** Reached end of trace for Core: 0 Repeating trace: ./data/.trace.gz
gzip: ./data/.trace.gz: No such file or directory
*** Reached end of trace for Core: 0 Repeating trace: ./data/.trace.gz
gzip: ./data/.trace.gz: No such file or directory
*** Reached end of trace for Core: 0 Repeating trace: ./data/.trace.gz
gzip: ./data/.trace.gz: No such file or directory
*** Reached end of trace for Core: 0 Repeating trace: ./data/.trace.gz
gzip: ./data/.trace.gz: No such file or directory
*** Reached end of trace for Core: 0 Repeating trace: ./data/.trace.gz
gzip: ./data/.trace.gz: No such file or directory
*** Reached end of trace for Core: 0 Repeating trace: ./data/.trace.gz
gzip: ./data/.trace.gz: No such file or directory
*** Reached end of trace for Core: 0 Repeating trace: ./data/.trace.gz
gzip: ./data/.trace.gz: No such file or directory
*** Reached end of trace for Core: 0 Repeating trace: ./data/.trace.gz
gzip: ./data/.trace.gz: No such file or directory
*** Reached end of trace for Core: 0 Repeating trace: ./data/.trace.gz
gzip: ./data/.trace.gz: No such file or directory
*** Reached end of trace for Core: 0 Repeating trace: ./data/.trace.gz
gzip: ./data/.trace.gz: No such file or directory
*** Reached end of trace for Core: 0 Repeating trace: ./data/.trace.gz
gzip: ./data/.trace.gz: No such file or directory
*** Reached end of trace for Core: 0 Repeating trace: ./data/.trace.gz
gzip: ./data/.trace.gz: No such file or directory
*** Reached end of trace for Core: 0 Repeating trace: ./data/.trace.gz
gzip: ./data/.trace.gz: No such file or directory
*** Reached end of trace for Core: 0 Repeating trace: ./data/.trace.gz
gzip: ./data/.trace.gz: No such file or directory
*** Reached end of trace for Core: 0 Repeating trace: ./data/.trace.gz
gzip: ./data/.trace.gz: No such file or directory
*** Reached end of trace for Core: 0 Repeating trace: ./data/.trace.gz
gzip: ./data/.trace.gz: No such file or directory
*** Reached end of trace for Core: 0 Repeating trace: ./data/.trace.gz
gzip: ./data/.trace.gz: No such file or directory
*** Reached end of trace for Core: 0 Repeating trace: ./data/.trace.gz
gzip: ./data/.trace.gz: No such file or directory
*** Reached end of trace for Core: 0 Repeating trace: ./data/.trace.gz
gzip: ./data/.trace.gz: No such file or directory
*** Reached end of trace for Core: 0 Repeating trace: ./data/.trace.gz
gzip: ./data/.trace.gz: No such file or directory
*** Reached end of trace for Core: 0 Repeating trace: ./data/.trace.gz
gzip: ./data/.trace.gz: No such file or directory
*** Reached end of trace for Core: 0 Repeating trace: ./data/.trace.gz
gzip: ./data/.trace.gz: No such file or directory
*** Reached end of trace for Core: 0 Repeating trace: ./data/.trace.gz
gzip: ./data/.trace.gz: No such file or directory
*** Reached end of trace for Core: 0 Repeating trace: ./data/.trace.gz
gzip: ./data/.trace.gz: No such file or directory
*** Reached end of trace for Core: 0 Repeating trace: ./data/.trace.gz
gzip: ./data/.trace.gz: No such file or directory
*** Reached end of trace for Core: 0 Repeating trace: ./data/.trace.gz
gzip: ./data/.trace.gz: No such file or directory
*** Reached end of trace for Core: 0 Repeating trace: ./data/.trace.gz
gzip: ./data/.trace.gz: No such file or directory
*** Reached end of trace for Core: 0 Repeating trace: ./data/.trace.gz
gzip: ./data/.trace.gz: No such file or directory
*** Reached end of trace for Core: 0 Repeating trace: ./data/.trace.gz
gzip: ./data/.trace.gz: No such file or directory
*** Reached end of trace for Core: 0 Repeating trace: ./data/.trace.gz
gzip: ./data/.trace.gz: No such file or directory
*** Reached end of trace for Core: 0 Repeating trace: ./data/.trace.gz
gzip: ./data/.trace.gz: No such file or directory
*** Reached end of trace for Core: 0 Repeating trace: ./data/.trace.gz
gzip: ./data/.trace.gz: No such file or directory
*** Reached end of trace for Core: 0 Repeating trace: ./data/.trace.gz
gzip: ./data/.trace.gz: No such file or directory
*** Reached end of trace for Core: 0 Repeating trace: ./data/.trace.gz
gzip: ./data/.trace.gz: No such file or directory
*** Reached end of trace for Core: 0 Repeating trace: ./data/.trace.gz
gzip: ./data/.trace.gz: No such file or directory
*** Reached end of trace for Core: 0 Repeating trace: ./data/.trace.gz
gzip: ./data/.trace.gz: No such file or directory
*** Reached end of trace for Core: 0 Repeating trace: ./data/.trace.gz
gzip: ./data/.trace.gz: No such file or directory
*** Reached end of trace for Core: 0 Repeating trace: ./data/.trace.gz
gzip: ./data/.trace.gz: No such file or directory
*** Reached end of trace for Core: 0 Repeating trace: ./data/.trace.gz
gzip: ./data/.trace.gz: No such file or directory
*** Reached end of trace for Core: 0 Repeating trace: ./data/.trace.gz
gzip: ./data/.trace.gz: No such file or directory
*** Reached end of trace for Core: 0 Repeating trace: ./data/.trace.gz
gzip: ./data/.trace.gz: No such file or directory
*** Reached end of trace for Core: 0 Repeating trace: ./data/.trace.gz
gzip: ./data/.trace.gz: No such file or directory
*** Reached end of trace for Core: 0 Repeating trace: ./data/.trace.gz
gzip: ./data/.trace.gz: No such file or directory
*** Reached end of trace for Core: 0 Repeating trace: ./data/.trace.gz
gzip: ./data/.trace.gz: No such file or directory
*** Reached end of trace for Core: 0 Repeating trace: ./data/.trace.gz
gzip: ./data/.trace.gz: No such file or directory
*** Reached end of trace for Core: 0 Repeating trace: ./data/.trace.gz
gzip: ./data/.trace.gz: No such file or directory
*** Reached end of trace for Core: 0 Repeating trace: ./data/.trace.gz
gzip: ./data/.trace.gz: No such file or directory
*** Reached end of trace for Core: 0 Repeating trace: ./data/.trace.gz
gzip: ./data/.trace.gz: No such file or directory
*** Reached end of trace for Core: 0 Repeating trace: ./data/.trace.gz
gzip: ./data/.trace.gz: No such file or directory
*** Reached end of trace for Core: 0 Repeating trace: ./data/.trace.gz
gzip: ./data/.trace.gz: No such file or directory
*** Reached end of trace for Core: 0 Repeating trace: ./data/.trace.gz
gzip: ./data/.trace.gz: No such file or directory
*** Reached end of trace for Core: 0 Repeating trace: ./data/.trace.gz
gzip: ./data/.trace.gz: No such file or directory
*** Reached end of trace for Core: 0 Repeating trace: ./data/.trace.gz
gzip: ./data/.trace.gz: No such file or directory
*** Reached end of trace for Core: 0 Repeating trace: ./data/.trace.gz
gzip: ./data/.trace.gz: No such file or directory
*** Reached end of trace for Core: 0 Repeating trace: ./data/.trace.gz
gzip: ./data/.trace.gz: No such file or directory
*** Reached end of trace for Core: 0 Repeating trace: ./data/.trace.gz
gzip: ./data/.trace.gz: No such file or directory
*** Reached end of trace for Core: 0 Repeating trace: ./data/.trace.gz
gzip: ./data/.trace.gz: No such file or directory
*** Reached end of trace for Core: 0 Repeating trace: ./data/.trace.gz
gzip: ./data/.trace.gz: No such file or directory
*** Reached end of trace for Core: 0 Repeating trace: ./data/.trace.gz
gzip: ./data/.trace.gz: No such file or directory
*** Reached end of trace for Core: 0 Repeating trace: ./data/.trace.gz
gzip: ./data/.trace.gz: No such file or directory
*** Reached end of trace for Core: 0 Repeating trace: ./data/.trace.gz
gzip: ./data/.trace.gz: No such file or directory
*** Reached end of trace for Core: 0 Repeating trace: ./data/.trace.gz
gzip: ./data/.trace.gz: No such file or directory
*** Reached end of trace for Core: 0 Repeating trace: ./data/.trace.gz
gzip: ./data/.trace.gz: No such file or directory
*** Reached end of trace for Core: 0 Repeating trace: ./data/.trace.gz
gzip: ./data/.trace.gz: No such file or directory
*** Reached end of trace for Core: 0 Repeating trace: ./data/.trace.gz
gzip: ./data/.trace.gz: No such file or directory
*** Reached end of trace for Core: 0 Repeating trace: ./data/.trace.gz
gzip: ./data/.trace.gz: No such file or directory
*** Reached end of trace for Core: 0 Repeating trace: ./data/.trace.gz
gzip: ./data/.trace.gz: No such file or directory
*** Reached end of trace for Core: 0 Repeating trace: ./data/.trace.gz
gzip: ./data/.trace.gz: No such file or directory
*** Reached end of trace for Core: 0 Repeating trace: ./data/.trace.gz
gzip: ./data/.trace.gz: No such file or directory
*** Reached end of trace for Core: 0 Repeating trace: ./data/.trace.gz
gzip: ./data/.trace.gz: No such file or directory
*** Reached end of trace for Core: 0 Repeating trace: ./data/.trace.gz
gzip: ./data/.trace.gz: No such file or directory
*** Reached end of trace for Core: 0 Repeating trace: ./data/.trace.gz
gzip: ./data/.trace.gz: No such file or directory
*** Reached end of trace for Core: 0 Repeating trace: ./data/.trace.gz
gzip: ./data/.trace.gz: No such file or directory
*** Reached end of trace for Core: 0 Repeating trace: ./data/.trace.gz
gzip: ./data/.trace.gz: No such file or directory
*** Reached end of trace for Core: 0 Repeating trace: ./data/.trace.gz
gzip: ./data/.trace.gz: No such file or directory
*** Reached end of trace for Core: 0 Repeating trace: ./data/.trace.gz
gzip: ./data/.trace.gz: No such file or directory
*** Reached end of trace for Core: 0 Repeating trace: ./data/.trace.gz
gzip: ./data/.trace.gz: No such file or directory
*** Reached end of trace for Core: 0 Repeating trace: ./data/.trace.gz
gzip: ./data/.trace.gz: No such file or directory
*** Reached end of trace for Core: 0 Repeating trace: ./data/.trace.gz
gzip: ./data/.trace.gz: No such file or directory
*** Reached end of trace for Core: 0 Repeating trace: ./data/.trace.gz
gzip: ./data/.trace.gz: No such file or directory
*** Reached end of trace for Core: 0 Repeating trace: ./data/.trace.gz
gzip: ./data/.trace.gz: No such file or directory
*** Reached end of trace for Core: 0 Repeating trace: ./data/.trace.gz
gzip: ./data/.trace.gz: No such file or directory
*** Reached end of trace for Core: 0 Repeating trace: ./data/.trace.gz
                                                                                                                                                                                                                                                                                                                                                                                                                                                                                                                                                                                                                                                                                                                                                                                                                                                                                                                                                                                                                                                                                                                                                                                                                                                                                                                                                                                                                                                                                                                                                                                                                                                                                                                                                                                                                                                                                                                                                                                                                                                                                                                                                                                                                                                                                                                                                                                                                                                                                                                                                                                                                                                                                                                                                                                                                                                                                                                                                                                                                                                                                                                                                                                                                                                                                                                                                                                                                                                                                                                                                                                                                                                                                                                                                                                                                                                                                                                                                                                                                                                                                                                                                                                                                                                                                                                                                                                                                                                                                                                                                                                                                                                                                                                                                                                                                                                                                                                                                                                                                                                                                                                                                                                                                                                                                                                                                                                                                                                                                                                                                                                                                                                                                                                                                                                                                                                                                                                                                                                                                                                                                                                                                                                                                                                                                                                                                                                                                                                                                                                                                                                                                                                                                                                                                                                                                                                                                                                                                                                                                                                                                                                                                                                                                                                                                                                                                                                                                                                                                                                                                                                                                                                                                                                                                                                                                                                                                                                                                                                                                                                                                                                                                                                                                                                                                                                                                                                                                                                                                                                                                                                                                                                                                                                                                                                                                                                                                                                                                                                                                                                                                                                                                                                                                                                                                                                                                                                                                                                                                                                                                                                                                                                                                                                                                                                                                                                                                                                                                                                                                                                                                                                                                                                                                                                                                                                                                                                                                                                                                                                                                                                                                                                                                                                                                                                                                                                                                                                                                                                                                                                                                                                                                                                                                                                                                                                                                                                                                                                                                                                                                                                                                                                                                                                                                                                                                                                                                                                                                                                                                                                                                                                                                                                                                                                                                                                                                                                                                                                                                                                                                                                                                                                                                                                                                                                                                                                                                                                                                                                                                                                                                                                                                                                                                                                                                                                                                                                                                                                                                                                                                                                                                                                                                                                                                                                                                                                                                                                                                                                                                                                                                                                                                                                                                                                                                                                                                                                                                                                                                                                                                                                                                                                                                                                                                                                                                                                                                                                                                                                                                                                                                                                                                                                                                                                                                                                                                                                                                                                                                                                                                                                                                                                                                                                                                                                                                                                                                                                                                                                                                                                                                                                                                                                                                                                                                                                                                                                                                                                                                                                                                                                                                                                                                                                                                                                                                                                                                                                                                                                                                                                                                                                                                                                                                                                                                                                                                                                                                                                                                                                                                                                                                                                                                                                                                                                                                                                                                                                                                                                                                                                                                                                                                                                                                                                                                                                                                                                                                                                                                                                                                                                                                                                                                                                                                                                                                                                                                                                                                                                                                                                                                                                                                                                                                                                                                                                                                                                                                                                                                                                                                                                                                                                                                                                                                                                                                                                                                                                                                                                                                                                                                                                                                                                                                                                                                                                                                                                                                                                                                                                                                                                                                                                                                                                                                                                                                                                                                                                                                                                                                                                                                                                                                                                                                                                                                                                                                                                                                                                                                                                                                                                                                                                                                                                                                                                                                                                                                                                                                                                                                                                                                                                                                                                                                                                                                                                                                                                                                                                                                                                                                                                                                                                                                                                                                                                                                                                                                                                                                                                                                                                                                                                                                                                                                                                                                                                                                                                                                                                                                                                                                                                                                                                                                                                                                                                                                                                                                                                                                                                                                                                                                                                                                                                                                                                                                                                                                                                                                                                                                                                                                                                                                                                                                                                                                                                                                                                                                                                                                                                                                                                                                                                                                                                                                                                                                                                                                                                                                                                                                                                                                                                                                                                                                                                                                                                                                                                                                                                                                                                                                                                                                                                                                                                                                                                                                                                                                                                                                                                                                                                                                                                                                                                                                                                                                                                                                                                                                                                                                                                                                                                                                                                                                                                                                                                                                                                                                                                                                                                                                                                                                                                                                                                                                                                                                                                                                                                                                                                                                                                                                                                                                                                                                                                                                                                                                                                                                                                                                                                                                                                                                                                                                                                                                                                                                                                                                                                                                                                                                                                                                                                                                                                                                                                                                                                                                                                                                                                                                                                                                                                                                                                                                                                                                                                                                                                                                                                                                                                                                                                                                                                                                                                                                                                                                                                                                                                                                                                                                                                                                                                                                                                                                                                                                                                                                                                                                                                                                                                                                                                                                                                                                                                                                                                                                                                                                                                                                                                                                                                                                                                                                                                                                                                                                                                                                                                                                                                                                                                                                                                                                                                                                                                                                                                                                                                                                                                                                                                                                                                                                                                                                                                                                                                                                                                                                                                                                                                                                                                                                                                                                                                                                                                                                                                                                                                                                                                                                                                                                                                                                                                                                                                                                                                                                                                                                                                                                                                                                                                                                                                                                                                                                                                                                                                                                                                                                                                                                                                                                                                                                                                                                                                                                                                                                                                                                                                                                                                                                                                                                                                                                                                                                                                                                                                                                                                                                                                                                                                                                                                                                                                                                                                                                                                                                                                                                                                                                                                                                                                                                                                                                                                                                                                                                                                                                                                                                                                                                                                                                                                                                                                                                                                                                                                                                                                                                                                                                                                                                                                                                                                                                                                                                                                                                                                                                                                                                                                                                                                                                                                                                                                                                                                                                                                                                                                                                                                                                                                                                                                                                                                                                                                                                                                                                                                                                                                                                                                                                                                                                                                                                                                                                                                                                                                                                                                                                                                                                                                                                                                                                                                                                                                                                                                                                                                                                                                                                                                                                                                                                                                                                                                                                                                                                                                                                                                                                                                                                                                                                                                                                                                                                                                                                                                                                                                                                                                                                                                                                                                                                                                                                                                                                                                                                                                                                                                                                                                                                                                                                                                                                                                                                                                                                                                                                                                                                                                                                                                                                                                                                                                                                                                                                                                                                                                                                                                                                                                                                                                                                                                                                                                                                                                                                                                                                                                                                                                                                                                                                                                                                                                                                                                                                                                                                                                                                                                                                                                                                                                                                                                                                                                                                                                                                                                                                                                                                                                                                                                                                                                                                                                                                                                                                                                                                                                                                                                                                                                                                                                                                                                                                                                                                                                                                                                                                                                                                                                                                                                                                                                                                                                                                                                                                                                                                                                                                                                                                                                                                                                                                                                                                                                                                                                                                                                                                                                                                                                                                                                                                                                                                                                                                                                                                                                                                                                                                                                                                                                                                                                                                                                                                                                                                                                                                                                                                                                                                                                                                                                                                                                                                                                                                                                                                                                                                                                                                                                                                                                                                                                                                                                                                                                                                                                                                                                                                                                                                                                                                                                                                                                                                                                                                                                                                                                                                                                                                                                                                                                                                                                                                                                                                                                                                                                                                                                                                                                                                                                                                                                                                                                                                                                                                                                                                                                                                                                                                                                                                                                                                                                                                                                                                                                                                                                                                                                                                                                                                                                                                                                                                                                                                                                                                                                                                                                                                                                                                                                                                                                                                                                                                                                                                                                                                                                                                                                                                                                                                                                                                                                                                                                                                                                                                                                                                                                                                                                                                                                                                                                                                                                                                                                                                                                                                                                                                                                                                                                                                                                                                                                                                                                                                                                                                                                                                                                                                                                                                                                                                                                                                                                                                                                                                                                                                                                                                                                                                                                                                                                                                                                                                                                                                                                                                                                                                                                                                                                                                                                                                                                                                                                                                                                                                                                                                                                                                                                                                                                                                                                                                                                                                                                                                                                                                                                                                                                                                                                                                                                                                                                                                                                                                                                                                                                                                                                                                                                                                                                                                                                                                                                                                                                                                                                                                                                                                                                                                                                                                                                                                                                                                                                                                                                                                                                                                                                                                                                                                                                                                                                                                                                                                                                                                                                                                                                                                                                                                                                                                                                                                                                                                                                                                                                                                                                                                                                                                                                                                                                                                                                                                                                                                                                                                                                                                                                                                                                                                                                                                                                                                                                                                                                                                                                                                                                                                                                                                                                                                                                                                                                                                                                                                                                                                                                                                                                                                                                                                                                                                                                                                                                                                                                                                                                                                                                                                                                                                                                                                                                                                                                                                                                                                                                                                                                                                                                                                                                                                                                                                                                                                                                                                                                                                                                                                                                                                                                                                                                                                                                                                                                                                                                                                                                                                                                                                                                                                                                                                                                                                                                                                                                                                                                                                                                                                                                                                                                                                                                                                                                                                                                                                                                                                                                                                                                                                                                                                                                                                                                                                                                                                                                                                                                                                                                                                                                                                                                                                                                                                                                                                                                                                                                                                                                                                                                                                                                                                                                                                                                                                                                                                                                                                                                                                                                                                                                                                                                                                                                                                                                                                                                                                                                                                                                                                                                                                                                                                                                                                                                                                                                                                                                                                                                                                                                                                                                                                                                                                                                                                                                                                                                                                                                                                                                                                                                                                                                                                                                                                                                                                                                                                                                                                                                                                                                                                                                                                                                                                                                                                                                                                                                                                                                                                                                                                                                                                                                                                                                                                                                                                                                                                                                                                                                                                                                                                                                                                                                                                                                                                                                                                                                                                                                                                                                                                                                                                                                                                                                                                                                                                                                                                                                                                                                                                                                                                                                                                                                                                                                                                                                                                                                                                                                                                                                                                                                                                                                                                                                                                                                                                                                                                                                                                                                                                                                                                                                                                                                                                                                                                                                                                                                                                                                                                                                                                                                                                                                                                                                                                                                                                                                                                                                                                                                                                                                                                                                                                                                                                                                                                                                                                                                                                                                                                                                                                                                                                                                                                                                                                                                                                                                                                                                                                                                                                                                                                                                                                                                                                                                                                                                                                                                                                                                                                                                                                                                                                                                                                                                                                                                                                                                                                                                                                                                                                                                                                                                                                                                                                                                                                                                                                                                                                                                                                                                                                                                                                                                                                                                                                                                                                                                                                                                                                                                                                                                                                                                                                                                                                                                                                                                                               
[...]
*** Reached end of trace for Core: 0 Repeating trace: /data/milc_744B.trace.gz
gzip: /data/milc_744B.trace.gz: No such file or directory
*** Reached end of trace for Core: 0 Repeating trace: /data/milc_744B.trace.gz
gzip: /data/milc_744B.trace.gz: No such file or directory
*** Reached end of trace for Core: 0 Repeating trace: /data/milc_744B.trace.gz
gzip: /data/milc_744B.trace.gz: No such file or directory
*** Reached end of trace for Core: 0 Repeating trace: /data/milc_744B.trace.gz
gzip: /data/milc_744B.trace.gz: No such file or directory
*** Reached end of trace for Core: 0 Repeating trace: /data/milc_744B.trace.gz
gzip: /data/milc_744B.trace.gz: No such file or directory
*** Reached end of trace for Core: 0 Repeating trace: /data/milc_744B.trace.gz
gzip: /data/milc_744B.trace.gz: No such file or directory
*** Reached end of trace for Core: 0 Repeating trace: /data/milc_744B.trace.gz
gzip: /data/milc_744B.trace.gz: No such file or directory
*** Reached end of trace for Core: 0 Repeating trace: /data/milc_744B.trace.gz
gzip: /data/milc_744B.trace.gz: No such file or directory
*** Reached end of trace for Core: 0 Repeating trace: /data/milc_744B.trace.gz
gzip: /data/milc_744B.trace.gz: No such file or directory
*** Reached end of trace for Core: 0 Repeating trace: /data/milc_744B.trace.gz
gzip: /data/milc_744B.trace.gz: No such file or directory
*** Reached end of trace for Core: 0 Repeating trace: /data/milc_744B.trace.gz
gzip: /data/milc_744B.trace.gz: No such file or directory
*** Reached end of trace for Core: 0 Repeating trace: /data/milc_744B.trace.gz
gzip: /data/milc_744B.trace.gz: No such file or directory
*** Reached end of trace for Core: 0 Repeating trace: /data/milc_744B.trace.gz
gzip: /data/milc_744B.trace.gz: No such file or directory
*** Reached end of trace for Core: 0 Repeating trace: /data/milc_744B.trace.gz
gzip: /data/milc_744B.trace.gz: No such file or directory
*** Reached end of trace for Core: 0 Repeating trace: /data/milc_744B.trace.gz
gzip: /data/milc_744B.trace.gz: No such file or directory
*** Reached end of trace for Core: 0 Repeating trace: /data/milc_744B.trace.gz
gzip: /data/milc_744B.trace.gz: No such file or directory
*** Reached end of trace for Core: 0 Repeating trace: /data/milc_744B.trace.gz
gzip: /data/milc_744B.trace.gz: No such file or directory
*** Reached end of trace for Core: 0 Repeating trace: /data/milc_744B.trace.gz
gzip: /data/milc_744B.trace.gz: No such file or directory
*** Reached end of trace for Core: 0 Repeating trace: /data/milc_744B.trace.gz
gzip: /data/milc_744B.trace.gz: No such file or directory
*** Reached end of trace for Core: 0 Repeating trace: /data/milc_744B.trace.gz
gzip: /data/milc_744B.trace.gz: No such file or directory
*** Reached end of trace for Core: 0 Repeating trace: /data/milc_744B.trace.gz
gzip: /data/milc_744B.trace.gz: No such file or directory
*** Reached end of trace for Core: 0 Repeating trace: /data/milc_744B.trace.gz
gzip: /data/milc_744B.trace.gz: No such file or directory
*** Reached end of trace for Core: 0 Repeating trace: /data/milc_744B.trace.gz
gzip: /data/milc_744B.trace.gz: No such file or directory
*** Reached end of trace for Core: 0 Repeating trace: /data/milc_744B.trace.gz
gzip: /data/milc_744B.trace.gz: No such file or directory
*** Reached end of trace for Core: 0 Repeating trace: /data/milc_744B.trace.gz
gzip: /data/milc_744B.trace.gz: No such file or directory
*** Reached end of trace for Core: 0 Repeating trace: /data/milc_744B.trace.gz
gzip: /data/milc_744B.trace.gz: No such file or directory
*** Reached end of trace for Core: 0 Repeating trace: /data/milc_744B.trace.gz
gzip: /data/milc_744B.trace.gz: No such file or directory
*** Reached end of trace for Core: 0 Repeating trace: /data/milc_744B.trace.gz
gzip: /data/milc_744B.trace.gz: No such file or directory
*** Reached end of trace for Core: 0 Repeating trace: /data/milc_744B.trace.gz
gzip: /data/milc_744B.trace.gz: No such file or directory
*** Reached end of trace for Core: 0 Repeating trace: /data/milc_744B.trace.gz
gzip: /data/milc_744B.trace.gz: No such file or directory
*** Reached end of trace for Core: 0 Repeating trace: /data/milc_744B.trace.gz
gzip: /data/milc_744B.trace.gz: No such file or directory
*** Reached end of trace for Core: 0 Repeating trace: /data/milc_744B.trace.gz
gzip: /data/milc_744B.trace.gz: No such file or directory
*** Reached end of trace for Core: 0 Repeating trace: /data/milc_744B.trace.gz
gzip: /data/milc_744B.trace.gz: No such file or directory
*** Reached end of trace for Core: 0 Repeating trace: /data/milc_744B.trace.gz
gzip: /data/milc_744B.trace.gz: No such file or directory
*** Reached end of trace for Core: 0 Repeating trace: /data/milc_744B.trace.gz
gzip: /data/milc_744B.trace.gz: No such file or directory
*** Reached end of trace for Core: 0 Repeating trace: /data/milc_744B.trace.gz
gzip: /data/milc_744B.trace.gz: No such file or directory
*** Reached end of trace for Core: 0 Repeating trace: /data/milc_744B.trace.gz
gzip: /data/milc_744B.trace.gz: No such file or directory
*** Reached end of trace for Core: 0 Repeating trace: /data/milc_744B.trace.gz
gzip: /data/milc_744B.trace.gz: No such file or directory
*** Reached end of trace for Core: 0 Repeating trace: /data/milc_744B.trace.gz
gzip: /data/milc_744B.trace.gz: No such file or directory
*** Reached end of trace for Core: 0 Repeating trace: /data/milc_744B.trace.gz
gzip: /data/milc_744B.trace.gz: No such file or directory
*** Reached end of trace for Core: 0 Repeating trace: /data/milc_744B.trace.gz
gzip: /data/milc_744B.trace.gz: No such file or directory
*** Reached end of trace for Core: 0 Repeating trace: /data/milc_744B.trace.gz
gzip: /data/milc_744B.trace.gz: No such file or directory
*** Reached end of trace for Core: 0 Repeating trace: /data/milc_744B.trace.gz
gzip: /data/milc_744B.trace.gz: No such file or directory
*** Reached end of trace for Core: 0 Repeating trace: /data/milc_744B.trace.gz
gzip: /data/milc_744B.trace.gz: No such file or directory
*** Reached end of trace for Core: 0 Repeating trace: /data/milc_744B.trace.gz
gzip: /data/milc_744B.trace.gz: No such file or directory
*** Reached end of trace for Core: 0 Repeating trace: /data/milc_744B.trace.gz
gzip: /data/milc_744B.trace.gz: No such file or directory
*** Reached end of trace for Core: 0 Repeating trace: /data/milc_744B.trace.gz
gzip: /data/milc_744B.trace.gz: No such file or directory
*** Reached end of trace for Core: 0 Repeating trace: /data/milc_744B.trace.gz
gzip: /data/milc_744B.trace.gz: No such file or directory
*** Reached end of trace for Core: 0 Repeating trace: /data/milc_744B.trace.gz
gzip: /data/milc_744B.trace.gz: No such file or directory
*** Reached end of trace for Core: 0 Repeating trace: /data/milc_744B.trace.gz
gzip: /data/milc_744B.trace.gz: No such file or directory
*** Reached end of trace for Core: 0 Repeating trace: /data/milc_744B.trace.gz
gzip: /data/milc_744B.trace.gz: No such file or directory
*** Reached end of trace for Core: 0 Repeating trace: /data/milc_744B.trace.gz
gzip: /data/milc_744B.trace.gz: No such file or directory
*** Reached end of trace for Core: 0 Repeating trace: /data/milc_744B.trace.gz
gzip: /data/milc_744B.trace.gz: No such file or directory
*** Reached end of trace for Core: 0 Repeating trace: /data/milc_744B.trace.gz
gzip: /data/milc_744B.trace.gz: No such file or directory
*** Reached end of trace for Core: 0 Repeating trace: /data/milc_744B.trace.gz
gzip: /data/milc_744B.trace.gz: No such file or directory
*** Reached end of trace for Core: 0 Repeating trace: /data/milc_744B.trace.gz
gzip: /data/milc_744B.trace.gz: No such file or directory
*** Reached end of trace for Core: 0 Repeating trace: /data/milc_744B.trace.gz
gzip: /data/milc_744B.trace.gz: No such file or directory
*** Reached end of trace for Core: 0 Repeating trace: /data/milc_744B.trace.gz
gzip: /data/milc_744B.trace.gz: No such file or directory
*** Reached end of trace for Core: 0 Repeating trace: /data/milc_744B.trace.gz
gzip: /data/milc_744B.trace.gz: No such file or directory
*** Reached end of trace for Core: 0 Repeating trace: /data/milc_744B.trace.gz
gzip: /data/milc_744B.trace.gz: No such file or directory
*** Reached end of trace for Core: 0 Repeating trace: /data/milc_744B.trace.gz
gzip: /data/milc_744B.trace.gz: No such file or directory
*** Reached end of trace for Core: 0 Repeating trace: /data/milc_744B.trace.gz
gzip: /data/milc_744B.trace.gz: No such file or directory
*** Reached end of trace for Core: 0 Repeating trace: /data/milc_744B.trace.gz
gzip: /data/milc_744B.trace.gz: No such file or directory
*** Reached end of trace for Core: 0 Repeating trace: /data/milc_744B.trace.gz
gzip: /data/milc_744B.trace.gz: No such file or directory
*** Reached end of trace for Core: 0 Repeating trace: /data/milc_744B.trace.gz
gzip: /data/milc_744B.trace.gz: No such file or directory
*** Reached end of trace for Core: 0 Repeating trace: /data/milc_744B.trace.gz
gzip: /data/milc_744B.trace.gz: No such file or directory
*** Reached end of trace for Core: 0 Repeating trace: /data/milc_744B.trace.gz
gzip: /data/milc_744B.trace.gz: No such file or directory
*** Reached end of trace for Core: 0 Repeating trace: /data/milc_744B.trace.gz
gzip: /data/milc_744B.trace.gz: No such file or directory
*** Reached end of trace for Core: 0 Repeating trace: /data/milc_744B.trace.gz
gzip: /data/milc_744B.trace.gz: No such file or directory
*** Reached end of trace for Core: 0 Repeating trace: /data/milc_744B.trace.gz
gzip: /data/milc_744B.trace.gz: No such file or directory
*** Reached end of trace for Core: 0 Repeating trace: /data/milc_744B.trace.gz
gzip: /data/milc_744B.trace.gz: No such file or directory
*** Reached end of trace for Core: 0 Repeating trace: /data/milc_744B.trace.gz
gzip: /data/milc_744B.trace.gz: No such file or directory
*** Reached end of trace for Core: 0 Repeating trace: /data/milc_744B.trace.gz
gzip: /data/milc_744B.trace.gz: No such file or directory
*** Reached end of trace for Core: 0 Repeating trace: /data/milc_744B.trace.gz
gzip: /data/milc_744B.trace.gz: No such file or directory
*** Reached end of trace for Core: 0 Repeating trace: /data/milc_744B.trace.gz
gzip: /data/milc_744B.trace.gz: No such file or directory
*** Reached end of trace for Core: 0 Repeating trace: /data/milc_744B.trace.gz
gzip: /data/milc_744B.trace.gz: No such file or directory
*** Reached end of trace for Core: 0 Repeating trace: /data/milc_744B.trace.gz
gzip: /data/milc_744B.trace.gz: No such file or directory
*** Reached end of trace for Core: 0 Repeating trace: /data/milc_744B.trace.gz
gzip: /data/milc_744B.trace.gz: No such file or directory
*** Reached end of trace for Core: 0 Repeating trace: /data/milc_744B.trace.gz
gzip: /data/milc_744B.trace.gz: No such file or directory
*** Reached end of trace for Core: 0 Repeating trace: /data/milc_744B.trace.gz
gzip: /data/milc_744B.trace.gz: No such file or directory
*** Reached end of trace for Core: 0 Repeating trace: /data/milc_744B.trace.gz
gzip: /data/milc_744B.trace.gz: No such file or directory
*** Reached end of trace for Core: 0 Repeating trace: /data/milc_744B.trace.gz
gzip: /data/milc_744B.trace.gz: No such file or directory
*** Reached end of trace for Core: 0 Repeating trace: /data/milc_744B.trace.gz
gzip: /data/milc_744B.trace.gz: No such file or directory
*** Reached end of trace for Core: 0 Repeating trace: /data/milc_744B.trace.gz
gzip: /data/milc_744B.trace.gz: No such file or directory
*** Reached end of trace for Core: 0 Repeating trace: /data/milc_744B.trace.gz
gzip: /data/milc_744B.trace.gz: No such file or directory
*** Reached end of trace for Core: 0 Repeating trace: /data/milc_744B.trace.gz
gzip: /data/milc_744B.trace.gz: No such file or directory
*** Reached end of trace for Core: 0 Repeating trace: /data/milc_744B.trace.gz
gzip: /data/milc_744B.trace.gz: No such file or directory
*** Reached end of trace for Core: 0 Repeating trace: /data/milc_744B.trace.gz
gzip: /data/milc_744B.trace.gz: No such file or directory
*** Reached end of trace for Core: 0 Repeating trace: /data/milc_744B.trace.gz
gzip: /data/milc_744B.trace.gz: No such file or directory
*** Reached end of trace for Core: 0 Repeating trace: /data/milc_744B.trace.gz
gzip: /data/milc_744B.trace.gz: No such file or directory
*** Reached end of trace for Core: 0 Repeating trace: /data/milc_744B.trace.gz
gzip: /data/milc_744B.trace.gz: No such file or directory
*** Reached end of trace for Core: 0 Repeating trace: /data/milc_744B.trace.gz
